
---------- Begin Simulation Statistics ----------
simSeconds                                   0.045079                       # Number of seconds simulated (Second)
simTicks                                  45078751000                       # Number of ticks simulated (Tick)
finalTick                                 45078751000                       # Number of ticks from beginning of simulation (restored from checkpoints and never reset) (Tick)
simFreq                                  1000000000000                       # The number of ticks per simulated second ((Tick/Second))
hostSeconds                                    527.49                       # Real time elapsed on the host (Second)
hostTickRate                                 85458889                       # The number of ticks simulated per host second (ticks/s) ((Tick/Second))
hostMemory                                     831372                       # Number of bytes of host memory used (Byte)
simInsts                                     14741889                       # Number of instructions simulated (Count)
simOps                                       52763671                       # Number of ops (including micro ops) simulated (Count)
hostInstRate                                    27947                       # Simulator instruction rate (inst/s) ((Count/Second))
hostOpRate                                     100028                       # Simulator op (including micro ops) rate (op/s) ((Count/Second))
system.clk_domain.clock                          1000                       # Clock period in ticks (Tick)
system.cpu0.numCycles                        90157503                       # Number of cpu cycles simulated (Cycle)
system.cpu0.cpi                             17.277695                       # CPI: cycles per instruction (core level) ((Cycle/Count))
system.cpu0.ipc                              0.057878                       # IPC: instructions per cycle (core level) ((Count/Cycle))
system.cpu0.numWorkItemsStarted                     0                       # Number of work items this cpu started (Count)
system.cpu0.numWorkItemsCompleted                   0                       # Number of work items this cpu completed (Count)
system.cpu0.instsAdded                       13523543                       # Number of instructions added to the IQ (excludes non-spec) (Count)
system.cpu0.nonSpecInstsAdded                 3001760                       # Number of non-speculative instructions added to the IQ (Count)
system.cpu0.instsIssued                      16325545                       # Number of instructions issued (Count)
system.cpu0.squashedInstsIssued                  3141                       # Number of squashed instructions issued (Count)
system.cpu0.squashedInstsExamined              673068                       # Number of squashed instructions iterated over during squash; mainly for profiling (Count)
system.cpu0.squashedOperandsExamined          1116857                       # Number of squashed operands that are examined and possibly removed from graph (Count)
system.cpu0.squashedNonSpecRemoved                332                       # Number of squashed non-spec instructions that were removed (Count)
system.cpu0.numIssuedDist::samples           89992916                       # Number of insts issued each cycle (Count)
system.cpu0.numIssuedDist::mean              0.181409                       # Number of insts issued each cycle (Count)
system.cpu0.numIssuedDist::stdev             0.642836                       # Number of insts issued each cycle (Count)
system.cpu0.numIssuedDist::underflows               0      0.00%      0.00% # Number of insts issued each cycle (Count)
system.cpu0.numIssuedDist::0                 79864955     88.75%     88.75% # Number of insts issued each cycle (Count)
system.cpu0.numIssuedDist::1                  6666042      7.41%     96.15% # Number of insts issued each cycle (Count)
system.cpu0.numIssuedDist::2                  2175995      2.42%     98.57% # Number of insts issued each cycle (Count)
system.cpu0.numIssuedDist::3                   699377      0.78%     99.35% # Number of insts issued each cycle (Count)
system.cpu0.numIssuedDist::4                   162775      0.18%     99.53% # Number of insts issued each cycle (Count)
system.cpu0.numIssuedDist::5                   161985      0.18%     99.71% # Number of insts issued each cycle (Count)
system.cpu0.numIssuedDist::6                   133221      0.15%     99.86% # Number of insts issued each cycle (Count)
system.cpu0.numIssuedDist::7                    79497      0.09%     99.95% # Number of insts issued each cycle (Count)
system.cpu0.numIssuedDist::8                    49069      0.05%    100.00% # Number of insts issued each cycle (Count)
system.cpu0.numIssuedDist::overflows                0      0.00%    100.00% # Number of insts issued each cycle (Count)
system.cpu0.numIssuedDist::min_value                0                       # Number of insts issued each cycle (Count)
system.cpu0.numIssuedDist::max_value                8                       # Number of insts issued each cycle (Count)
system.cpu0.numIssuedDist::total             89992916                       # Number of insts issued each cycle (Count)
system.cpu0.statFuBusy::No_OpClass                  0      0.00%      0.00% # attempts to use FU when none available (Count)
system.cpu0.statFuBusy::IntAlu                  64315     72.57%     72.57% # attempts to use FU when none available (Count)
system.cpu0.statFuBusy::IntMult                     0      0.00%     72.57% # attempts to use FU when none available (Count)
system.cpu0.statFuBusy::IntDiv                      0      0.00%     72.57% # attempts to use FU when none available (Count)
system.cpu0.statFuBusy::FloatAdd                    0      0.00%     72.57% # attempts to use FU when none available (Count)
system.cpu0.statFuBusy::FloatCmp                    0      0.00%     72.57% # attempts to use FU when none available (Count)
system.cpu0.statFuBusy::FloatCvt                    0      0.00%     72.57% # attempts to use FU when none available (Count)
system.cpu0.statFuBusy::FloatMult                   0      0.00%     72.57% # attempts to use FU when none available (Count)
system.cpu0.statFuBusy::FloatMultAcc                0      0.00%     72.57% # attempts to use FU when none available (Count)
system.cpu0.statFuBusy::FloatDiv                    0      0.00%     72.57% # attempts to use FU when none available (Count)
system.cpu0.statFuBusy::FloatMisc                   0      0.00%     72.57% # attempts to use FU when none available (Count)
system.cpu0.statFuBusy::FloatSqrt                   0      0.00%     72.57% # attempts to use FU when none available (Count)
system.cpu0.statFuBusy::SimdAdd                    13      0.01%     72.59% # attempts to use FU when none available (Count)
system.cpu0.statFuBusy::SimdAddAcc                  0      0.00%     72.59% # attempts to use FU when none available (Count)
system.cpu0.statFuBusy::SimdAlu                   141      0.16%     72.74% # attempts to use FU when none available (Count)
system.cpu0.statFuBusy::SimdCmp                     0      0.00%     72.74% # attempts to use FU when none available (Count)
system.cpu0.statFuBusy::SimdCvt                    88      0.10%     72.84% # attempts to use FU when none available (Count)
system.cpu0.statFuBusy::SimdMisc                   20      0.02%     72.87% # attempts to use FU when none available (Count)
system.cpu0.statFuBusy::SimdMult                    0      0.00%     72.87% # attempts to use FU when none available (Count)
system.cpu0.statFuBusy::SimdMultAcc                 0      0.00%     72.87% # attempts to use FU when none available (Count)
system.cpu0.statFuBusy::SimdMatMultAcc              0      0.00%     72.87% # attempts to use FU when none available (Count)
system.cpu0.statFuBusy::SimdShift                 148      0.17%     73.03% # attempts to use FU when none available (Count)
system.cpu0.statFuBusy::SimdShiftAcc                0      0.00%     73.03% # attempts to use FU when none available (Count)
system.cpu0.statFuBusy::SimdDiv                     0      0.00%     73.03% # attempts to use FU when none available (Count)
system.cpu0.statFuBusy::SimdSqrt                    0      0.00%     73.03% # attempts to use FU when none available (Count)
system.cpu0.statFuBusy::SimdFloatAdd                0      0.00%     73.03% # attempts to use FU when none available (Count)
system.cpu0.statFuBusy::SimdFloatAlu                0      0.00%     73.03% # attempts to use FU when none available (Count)
system.cpu0.statFuBusy::SimdFloatCmp                0      0.00%     73.03% # attempts to use FU when none available (Count)
system.cpu0.statFuBusy::SimdFloatCvt                0      0.00%     73.03% # attempts to use FU when none available (Count)
system.cpu0.statFuBusy::SimdFloatDiv                0      0.00%     73.03% # attempts to use FU when none available (Count)
system.cpu0.statFuBusy::SimdFloatMisc               0      0.00%     73.03% # attempts to use FU when none available (Count)
system.cpu0.statFuBusy::SimdFloatMult               0      0.00%     73.03% # attempts to use FU when none available (Count)
system.cpu0.statFuBusy::SimdFloatMultAcc            0      0.00%     73.03% # attempts to use FU when none available (Count)
system.cpu0.statFuBusy::SimdFloatMatMultAcc            0      0.00%     73.03% # attempts to use FU when none available (Count)
system.cpu0.statFuBusy::SimdFloatSqrt               0      0.00%     73.03% # attempts to use FU when none available (Count)
system.cpu0.statFuBusy::SimdReduceAdd               0      0.00%     73.03% # attempts to use FU when none available (Count)
system.cpu0.statFuBusy::SimdReduceAlu               0      0.00%     73.03% # attempts to use FU when none available (Count)
system.cpu0.statFuBusy::SimdReduceCmp               0      0.00%     73.03% # attempts to use FU when none available (Count)
system.cpu0.statFuBusy::SimdFloatReduceAdd            0      0.00%     73.03% # attempts to use FU when none available (Count)
system.cpu0.statFuBusy::SimdFloatReduceCmp            0      0.00%     73.03% # attempts to use FU when none available (Count)
system.cpu0.statFuBusy::SimdAes                     0      0.00%     73.03% # attempts to use FU when none available (Count)
system.cpu0.statFuBusy::SimdAesMix                  0      0.00%     73.03% # attempts to use FU when none available (Count)
system.cpu0.statFuBusy::SimdSha1Hash                0      0.00%     73.03% # attempts to use FU when none available (Count)
system.cpu0.statFuBusy::SimdSha1Hash2               0      0.00%     73.03% # attempts to use FU when none available (Count)
system.cpu0.statFuBusy::SimdSha256Hash              0      0.00%     73.03% # attempts to use FU when none available (Count)
system.cpu0.statFuBusy::SimdSha256Hash2             0      0.00%     73.03% # attempts to use FU when none available (Count)
system.cpu0.statFuBusy::SimdShaSigma2               0      0.00%     73.03% # attempts to use FU when none available (Count)
system.cpu0.statFuBusy::SimdShaSigma3               0      0.00%     73.03% # attempts to use FU when none available (Count)
system.cpu0.statFuBusy::SimdSha3                    0      0.00%     73.03% # attempts to use FU when none available (Count)
system.cpu0.statFuBusy::SimdSm4e                    0      0.00%     73.03% # attempts to use FU when none available (Count)
system.cpu0.statFuBusy::SimdCrc                     0      0.00%     73.03% # attempts to use FU when none available (Count)
system.cpu0.statFuBusy::SimdPredAlu                 0      0.00%     73.03% # attempts to use FU when none available (Count)
system.cpu0.statFuBusy::SimdDotProd                 0      0.00%     73.03% # attempts to use FU when none available (Count)
system.cpu0.statFuBusy::Matrix                      0      0.00%     73.03% # attempts to use FU when none available (Count)
system.cpu0.statFuBusy::MatrixMov                   0      0.00%     73.03% # attempts to use FU when none available (Count)
system.cpu0.statFuBusy::MatrixOP                    0      0.00%     73.03% # attempts to use FU when none available (Count)
system.cpu0.statFuBusy::MemRead                 13003     14.67%     87.71% # attempts to use FU when none available (Count)
system.cpu0.statFuBusy::MemWrite                 9790     11.05%     98.75% # attempts to use FU when none available (Count)
system.cpu0.statFuBusy::FloatMemRead              734      0.83%     99.58% # attempts to use FU when none available (Count)
system.cpu0.statFuBusy::FloatMemWrite             372      0.42%    100.00% # attempts to use FU when none available (Count)
system.cpu0.statFuBusy::InstPrefetch                0      0.00%    100.00% # attempts to use FU when none available (Count)
system.cpu0.statFuBusy::SimdUnitStrideLoad            0      0.00%    100.00% # attempts to use FU when none available (Count)
system.cpu0.statFuBusy::SimdUnitStrideStore            0      0.00%    100.00% # attempts to use FU when none available (Count)
system.cpu0.statFuBusy::SimdUnitStrideMaskLoad            0      0.00%    100.00% # attempts to use FU when none available (Count)
system.cpu0.statFuBusy::SimdUnitStrideMaskStore            0      0.00%    100.00% # attempts to use FU when none available (Count)
system.cpu0.statFuBusy::SimdStridedLoad             0      0.00%    100.00% # attempts to use FU when none available (Count)
system.cpu0.statFuBusy::SimdStridedStore            0      0.00%    100.00% # attempts to use FU when none available (Count)
system.cpu0.statFuBusy::SimdIndexedLoad             0      0.00%    100.00% # attempts to use FU when none available (Count)
system.cpu0.statFuBusy::SimdIndexedStore            0      0.00%    100.00% # attempts to use FU when none available (Count)
system.cpu0.statFuBusy::SimdWholeRegisterLoad            0      0.00%    100.00% # attempts to use FU when none available (Count)
system.cpu0.statFuBusy::SimdWholeRegisterStore            0      0.00%    100.00% # attempts to use FU when none available (Count)
system.cpu0.statFuBusy::SimdUnitStrideFaultOnlyFirstLoad            0      0.00%    100.00% # attempts to use FU when none available (Count)
system.cpu0.statFuBusy::SimdUnitStrideSegmentedLoad            0      0.00%    100.00% # attempts to use FU when none available (Count)
system.cpu0.statFuBusy::SimdUnitStrideSegmentedStore            0      0.00%    100.00% # attempts to use FU when none available (Count)
system.cpu0.statFuBusy::SimdUnitStrideSegmentedFaultOnlyFirstLoad            0      0.00%    100.00% # attempts to use FU when none available (Count)
system.cpu0.statFuBusy::SimdStrideSegmentedLoad            0      0.00%    100.00% # attempts to use FU when none available (Count)
system.cpu0.statFuBusy::SimdStrideSegmentedStore            0      0.00%    100.00% # attempts to use FU when none available (Count)
system.cpu0.statFuBusy::SimdExt                     0      0.00%    100.00% # attempts to use FU when none available (Count)
system.cpu0.statFuBusy::SimdFloatExt                0      0.00%    100.00% # attempts to use FU when none available (Count)
system.cpu0.statFuBusy::SimdConfig                  0      0.00%    100.00% # attempts to use FU when none available (Count)
system.cpu0.statFuBusy::SimdBf16Add                 0      0.00%    100.00% # attempts to use FU when none available (Count)
system.cpu0.statFuBusy::SimdBf16Cmp                 0      0.00%    100.00% # attempts to use FU when none available (Count)
system.cpu0.statFuBusy::SimdBf16Cvt                 0      0.00%    100.00% # attempts to use FU when none available (Count)
system.cpu0.statFuBusy::SimdBf16DotProd             0      0.00%    100.00% # attempts to use FU when none available (Count)
system.cpu0.statFuBusy::SimdBf16MatMultAcc            0      0.00%    100.00% # attempts to use FU when none available (Count)
system.cpu0.statFuBusy::SimdBf16Mult                0      0.00%    100.00% # attempts to use FU when none available (Count)
system.cpu0.statFuBusy::SimdBf16MultAcc             0      0.00%    100.00% # attempts to use FU when none available (Count)
system.cpu0.statFuBusy::Bf16Cvt                     0      0.00%    100.00% # attempts to use FU when none available (Count)
system.cpu0.statFuBusy::System                      0      0.00%    100.00% # attempts to use FU when none available (Count)
system.cpu0.issuedInstType_0::No_OpClass        24479      0.15%      0.15% # Number of instructions issued per FU type, per thread (Count)
system.cpu0.issuedInstType_0::IntAlu         13344009     81.74%     81.89% # Number of instructions issued per FU type, per thread (Count)
system.cpu0.issuedInstType_0::IntMult              62      0.00%     81.89% # Number of instructions issued per FU type, per thread (Count)
system.cpu0.issuedInstType_0::IntDiv            39783      0.24%     82.13% # Number of instructions issued per FU type, per thread (Count)
system.cpu0.issuedInstType_0::FloatAdd           8865      0.05%     82.19% # Number of instructions issued per FU type, per thread (Count)
system.cpu0.issuedInstType_0::FloatCmp              0      0.00%     82.19% # Number of instructions issued per FU type, per thread (Count)
system.cpu0.issuedInstType_0::FloatCvt           1594      0.01%     82.20% # Number of instructions issued per FU type, per thread (Count)
system.cpu0.issuedInstType_0::FloatMult             0      0.00%     82.20% # Number of instructions issued per FU type, per thread (Count)
system.cpu0.issuedInstType_0::FloatMultAcc            0      0.00%     82.20% # Number of instructions issued per FU type, per thread (Count)
system.cpu0.issuedInstType_0::FloatDiv              0      0.00%     82.20% # Number of instructions issued per FU type, per thread (Count)
system.cpu0.issuedInstType_0::FloatMisc             0      0.00%     82.20% # Number of instructions issued per FU type, per thread (Count)
system.cpu0.issuedInstType_0::FloatSqrt             0      0.00%     82.20% # Number of instructions issued per FU type, per thread (Count)
system.cpu0.issuedInstType_0::SimdAdd            6643      0.04%     82.24% # Number of instructions issued per FU type, per thread (Count)
system.cpu0.issuedInstType_0::SimdAddAcc            0      0.00%     82.24% # Number of instructions issued per FU type, per thread (Count)
system.cpu0.issuedInstType_0::SimdAlu           15084      0.09%     82.33% # Number of instructions issued per FU type, per thread (Count)
system.cpu0.issuedInstType_0::SimdCmp               0      0.00%     82.33% # Number of instructions issued per FU type, per thread (Count)
system.cpu0.issuedInstType_0::SimdCvt           13998      0.09%     82.41% # Number of instructions issued per FU type, per thread (Count)
system.cpu0.issuedInstType_0::SimdMisc          14333      0.09%     82.50% # Number of instructions issued per FU type, per thread (Count)
system.cpu0.issuedInstType_0::SimdMult              0      0.00%     82.50% # Number of instructions issued per FU type, per thread (Count)
system.cpu0.issuedInstType_0::SimdMultAcc            0      0.00%     82.50% # Number of instructions issued per FU type, per thread (Count)
system.cpu0.issuedInstType_0::SimdMatMultAcc            0      0.00%     82.50% # Number of instructions issued per FU type, per thread (Count)
system.cpu0.issuedInstType_0::SimdShift          1662      0.01%     82.51% # Number of instructions issued per FU type, per thread (Count)
system.cpu0.issuedInstType_0::SimdShiftAcc            0      0.00%     82.51% # Number of instructions issued per FU type, per thread (Count)
system.cpu0.issuedInstType_0::SimdDiv               0      0.00%     82.51% # Number of instructions issued per FU type, per thread (Count)
system.cpu0.issuedInstType_0::SimdSqrt              0      0.00%     82.51% # Number of instructions issued per FU type, per thread (Count)
system.cpu0.issuedInstType_0::SimdFloatAdd            0      0.00%     82.51% # Number of instructions issued per FU type, per thread (Count)
system.cpu0.issuedInstType_0::SimdFloatAlu            0      0.00%     82.51% # Number of instructions issued per FU type, per thread (Count)
system.cpu0.issuedInstType_0::SimdFloatCmp            0      0.00%     82.51% # Number of instructions issued per FU type, per thread (Count)
system.cpu0.issuedInstType_0::SimdFloatCvt            0      0.00%     82.51% # Number of instructions issued per FU type, per thread (Count)
system.cpu0.issuedInstType_0::SimdFloatDiv            0      0.00%     82.51% # Number of instructions issued per FU type, per thread (Count)
system.cpu0.issuedInstType_0::SimdFloatMisc            0      0.00%     82.51% # Number of instructions issued per FU type, per thread (Count)
system.cpu0.issuedInstType_0::SimdFloatMult            0      0.00%     82.51% # Number of instructions issued per FU type, per thread (Count)
system.cpu0.issuedInstType_0::SimdFloatMultAcc            0      0.00%     82.51% # Number of instructions issued per FU type, per thread (Count)
system.cpu0.issuedInstType_0::SimdFloatMatMultAcc            0      0.00%     82.51% # Number of instructions issued per FU type, per thread (Count)
system.cpu0.issuedInstType_0::SimdFloatSqrt            0      0.00%     82.51% # Number of instructions issued per FU type, per thread (Count)
system.cpu0.issuedInstType_0::SimdReduceAdd            0      0.00%     82.51% # Number of instructions issued per FU type, per thread (Count)
system.cpu0.issuedInstType_0::SimdReduceAlu            0      0.00%     82.51% # Number of instructions issued per FU type, per thread (Count)
system.cpu0.issuedInstType_0::SimdReduceCmp            0      0.00%     82.51% # Number of instructions issued per FU type, per thread (Count)
system.cpu0.issuedInstType_0::SimdFloatReduceAdd            0      0.00%     82.51% # Number of instructions issued per FU type, per thread (Count)
system.cpu0.issuedInstType_0::SimdFloatReduceCmp            0      0.00%     82.51% # Number of instructions issued per FU type, per thread (Count)
system.cpu0.issuedInstType_0::SimdAes               0      0.00%     82.51% # Number of instructions issued per FU type, per thread (Count)
system.cpu0.issuedInstType_0::SimdAesMix            0      0.00%     82.51% # Number of instructions issued per FU type, per thread (Count)
system.cpu0.issuedInstType_0::SimdSha1Hash            0      0.00%     82.51% # Number of instructions issued per FU type, per thread (Count)
system.cpu0.issuedInstType_0::SimdSha1Hash2            0      0.00%     82.51% # Number of instructions issued per FU type, per thread (Count)
system.cpu0.issuedInstType_0::SimdSha256Hash            0      0.00%     82.51% # Number of instructions issued per FU type, per thread (Count)
system.cpu0.issuedInstType_0::SimdSha256Hash2            0      0.00%     82.51% # Number of instructions issued per FU type, per thread (Count)
system.cpu0.issuedInstType_0::SimdShaSigma2            0      0.00%     82.51% # Number of instructions issued per FU type, per thread (Count)
system.cpu0.issuedInstType_0::SimdShaSigma3            0      0.00%     82.51% # Number of instructions issued per FU type, per thread (Count)
system.cpu0.issuedInstType_0::SimdSha3              0      0.00%     82.51% # Number of instructions issued per FU type, per thread (Count)
system.cpu0.issuedInstType_0::SimdSm4e              0      0.00%     82.51% # Number of instructions issued per FU type, per thread (Count)
system.cpu0.issuedInstType_0::SimdCrc               0      0.00%     82.51% # Number of instructions issued per FU type, per thread (Count)
system.cpu0.issuedInstType_0::SimdPredAlu            0      0.00%     82.51% # Number of instructions issued per FU type, per thread (Count)
system.cpu0.issuedInstType_0::SimdDotProd            0      0.00%     82.51% # Number of instructions issued per FU type, per thread (Count)
system.cpu0.issuedInstType_0::Matrix                0      0.00%     82.51% # Number of instructions issued per FU type, per thread (Count)
system.cpu0.issuedInstType_0::MatrixMov             0      0.00%     82.51% # Number of instructions issued per FU type, per thread (Count)
system.cpu0.issuedInstType_0::MatrixOP              0      0.00%     82.51% # Number of instructions issued per FU type, per thread (Count)
system.cpu0.issuedInstType_0::MemRead         1582588      9.69%     92.21% # Number of instructions issued per FU type, per thread (Count)
system.cpu0.issuedInstType_0::MemWrite        1233784      7.56%     99.76% # Number of instructions issued per FU type, per thread (Count)
system.cpu0.issuedInstType_0::FloatMemRead        22505      0.14%     99.90% # Number of instructions issued per FU type, per thread (Count)
system.cpu0.issuedInstType_0::FloatMemWrite        16156      0.10%    100.00% # Number of instructions issued per FU type, per thread (Count)
system.cpu0.issuedInstType_0::InstPrefetch            0      0.00%    100.00% # Number of instructions issued per FU type, per thread (Count)
system.cpu0.issuedInstType_0::SimdUnitStrideLoad            0      0.00%    100.00% # Number of instructions issued per FU type, per thread (Count)
system.cpu0.issuedInstType_0::SimdUnitStrideStore            0      0.00%    100.00% # Number of instructions issued per FU type, per thread (Count)
system.cpu0.issuedInstType_0::SimdUnitStrideMaskLoad            0      0.00%    100.00% # Number of instructions issued per FU type, per thread (Count)
system.cpu0.issuedInstType_0::SimdUnitStrideMaskStore            0      0.00%    100.00% # Number of instructions issued per FU type, per thread (Count)
system.cpu0.issuedInstType_0::SimdStridedLoad            0      0.00%    100.00% # Number of instructions issued per FU type, per thread (Count)
system.cpu0.issuedInstType_0::SimdStridedStore            0      0.00%    100.00% # Number of instructions issued per FU type, per thread (Count)
system.cpu0.issuedInstType_0::SimdIndexedLoad            0      0.00%    100.00% # Number of instructions issued per FU type, per thread (Count)
system.cpu0.issuedInstType_0::SimdIndexedStore            0      0.00%    100.00% # Number of instructions issued per FU type, per thread (Count)
system.cpu0.issuedInstType_0::SimdWholeRegisterLoad            0      0.00%    100.00% # Number of instructions issued per FU type, per thread (Count)
system.cpu0.issuedInstType_0::SimdWholeRegisterStore            0      0.00%    100.00% # Number of instructions issued per FU type, per thread (Count)
system.cpu0.issuedInstType_0::SimdUnitStrideFaultOnlyFirstLoad            0      0.00%    100.00% # Number of instructions issued per FU type, per thread (Count)
system.cpu0.issuedInstType_0::SimdUnitStrideSegmentedLoad            0      0.00%    100.00% # Number of instructions issued per FU type, per thread (Count)
system.cpu0.issuedInstType_0::SimdUnitStrideSegmentedStore            0      0.00%    100.00% # Number of instructions issued per FU type, per thread (Count)
system.cpu0.issuedInstType_0::SimdUnitStrideSegmentedFaultOnlyFirstLoad            0      0.00%    100.00% # Number of instructions issued per FU type, per thread (Count)
system.cpu0.issuedInstType_0::SimdStrideSegmentedLoad            0      0.00%    100.00% # Number of instructions issued per FU type, per thread (Count)
system.cpu0.issuedInstType_0::SimdStrideSegmentedStore            0      0.00%    100.00% # Number of instructions issued per FU type, per thread (Count)
system.cpu0.issuedInstType_0::SimdExt               0      0.00%    100.00% # Number of instructions issued per FU type, per thread (Count)
system.cpu0.issuedInstType_0::SimdFloatExt            0      0.00%    100.00% # Number of instructions issued per FU type, per thread (Count)
system.cpu0.issuedInstType_0::SimdConfig            0      0.00%    100.00% # Number of instructions issued per FU type, per thread (Count)
system.cpu0.issuedInstType_0::SimdBf16Add            0      0.00%    100.00% # Number of instructions issued per FU type, per thread (Count)
system.cpu0.issuedInstType_0::SimdBf16Cmp            0      0.00%    100.00% # Number of instructions issued per FU type, per thread (Count)
system.cpu0.issuedInstType_0::SimdBf16Cvt            0      0.00%    100.00% # Number of instructions issued per FU type, per thread (Count)
system.cpu0.issuedInstType_0::SimdBf16DotProd            0      0.00%    100.00% # Number of instructions issued per FU type, per thread (Count)
system.cpu0.issuedInstType_0::SimdBf16MatMultAcc            0      0.00%    100.00% # Number of instructions issued per FU type, per thread (Count)
system.cpu0.issuedInstType_0::SimdBf16Mult            0      0.00%    100.00% # Number of instructions issued per FU type, per thread (Count)
system.cpu0.issuedInstType_0::SimdBf16MultAcc            0      0.00%    100.00% # Number of instructions issued per FU type, per thread (Count)
system.cpu0.issuedInstType_0::Bf16Cvt               0      0.00%    100.00% # Number of instructions issued per FU type, per thread (Count)
system.cpu0.issuedInstType_0::System                0      0.00%    100.00% # Number of instructions issued per FU type, per thread (Count)
system.cpu0.issuedInstType_0::total          16325545                       # Number of instructions issued per FU type, per thread (Count)
system.cpu0.issueRate                        0.181078                       # Inst issue rate ((Count/Cycle))
system.cpu0.fuBusy                              88624                       # FU busy when requested (Count)
system.cpu0.fuBusyRate                       0.005429                       # FU busy rate (busy events/executed inst) ((Count/Count))
system.cpu0.intInstQueueReads               122524170                       # Number of integer instruction queue reads (Count)
system.cpu0.intInstQueueWrites               17053379                       # Number of integer instruction queue writes (Count)
system.cpu0.intInstQueueWakeupAccesses       16159505                       # Number of integer instruction queue wakeup accesses (Count)
system.cpu0.fpInstQueueReads                   211601                       # Number of floating instruction queue reads (Count)
system.cpu0.fpInstQueueWrites                  145134                       # Number of floating instruction queue writes (Count)
system.cpu0.fpInstQueueWakeupAccesses           99616                       # Number of floating instruction queue wakeup accesses (Count)
system.cpu0.vecInstQueueReads                       0                       # Number of vector instruction queue reads (Count)
system.cpu0.vecInstQueueWrites                      0                       # Number of vector instruction queue writes (Count)
system.cpu0.vecInstQueueWakeupAccesses              0                       # Number of vector instruction queue wakeup accesses (Count)
system.cpu0.intAluAccesses                   16283230                       # Number of integer alu accesses (Count)
system.cpu0.fpAluAccesses                      106460                       # Number of floating point alu accesses (Count)
system.cpu0.vecAluAccesses                          0                       # Number of vector alu accesses (Count)
system.cpu0.numRecvResp                       2748443                       # Number of received responses (Count)
system.cpu0.numRecvRespBytes                 12404146                       # Number of received response bytes (Byte)
system.cpu0.recvRespAvgBW                        0.14                       # Average bandwidth of received responses ((Byte/Cycle))
system.cpu0.recvRespAvgSize                      4.51                       # Average packet size per received response ((Byte/Count))
system.cpu0.recvRespAvgRate                      0.03                       # Average rate of received responses per cycle ((Count/Cycle))
system.cpu0.recvRespAvgRetryRate                 0.00                       # Average retry rate per received response ((Count/Count))
system.cpu0.numSendRetryResp                        0                       # Number of retry responses sent (Count)
system.cpu0.numSquashedInsts                    45391                       # Number of squashed instructions skipped in execute (Count)
system.cpu0.numSwp                                  0                       # Number of swp insts executed (Count)
system.cpu0.timesIdled                           2023                       # Number of times that the entire CPU went into an idle state and unscheduled itself (Count)
system.cpu0.idleCycles                         164587                       # Total number of cycles that the CPU has spent unscheduled due to idling (Cycle)
system.cpu0.MemDepUnit__0.insertedLoads       1624252                       # Number of loads inserted to the mem dependence unit. (Count)
system.cpu0.MemDepUnit__0.insertedStores      1260258                       # Number of stores inserted to the mem dependence unit. (Count)
system.cpu0.MemDepUnit__0.conflictingLoads        18972                       # Number of conflicting loads. (Count)
system.cpu0.MemDepUnit__0.conflictingStores      1007265                       # Number of conflicting stores. (Count)
system.cpu0.MemDepUnit__1.insertedLoads             0                       # Number of loads inserted to the mem dependence unit. (Count)
system.cpu0.MemDepUnit__1.insertedStores            0                       # Number of stores inserted to the mem dependence unit. (Count)
system.cpu0.MemDepUnit__1.conflictingLoads            0                       # Number of conflicting loads. (Count)
system.cpu0.MemDepUnit__1.conflictingStores            0                       # Number of conflicting stores. (Count)
system.cpu0.MemDepUnit__2.insertedLoads             0                       # Number of loads inserted to the mem dependence unit. (Count)
system.cpu0.MemDepUnit__2.insertedStores            0                       # Number of stores inserted to the mem dependence unit. (Count)
system.cpu0.MemDepUnit__2.conflictingLoads            0                       # Number of conflicting loads. (Count)
system.cpu0.MemDepUnit__2.conflictingStores            0                       # Number of conflicting stores. (Count)
system.cpu0.MemDepUnit__3.insertedLoads             0                       # Number of loads inserted to the mem dependence unit. (Count)
system.cpu0.MemDepUnit__3.insertedStores            0                       # Number of stores inserted to the mem dependence unit. (Count)
system.cpu0.MemDepUnit__3.conflictingLoads            0                       # Number of conflicting loads. (Count)
system.cpu0.MemDepUnit__3.conflictingStores            0                       # Number of conflicting stores. (Count)
system.cpu0.bac.fetchTargets                        0                       # Number of fetch targets created  (Count)
system.cpu0.bac.branches                      1454658                       # Number of branches that BAC encountered (Count)
system.cpu0.bac.predTakenBranches             1256707                       # Number of branches that BAC predicted taken. (Count)
system.cpu0.bac.branchesNotLastuOp                  0                       # Number of branches that fetch encountered which are not the last uOp within a macrooperation. Jump to itself. (Count)
system.cpu0.bac.branchMisspredict               15389                       # Number of mispredicted branches (Count)
system.cpu0.bac.noBranchMisspredict              1210                       # Number of non-branch instructions mispredicted (Count)
system.cpu0.bac.squashBranchDecode               1402                       # Number of branches squashed from decode (Count)
system.cpu0.bac.squashBranchCommit              13987                       # Number of branches squashed from commit (Count)
system.cpu0.bac.preDecUpdate::NoBranch              0                       # Number of branches extracted from the predecoder (Count)
system.cpu0.bac.preDecUpdate::Return                0                       # Number of branches extracted from the predecoder (Count)
system.cpu0.bac.preDecUpdate::CallDirect            0                       # Number of branches extracted from the predecoder (Count)
system.cpu0.bac.preDecUpdate::CallIndirect            0                       # Number of branches extracted from the predecoder (Count)
system.cpu0.bac.preDecUpdate::DirectCond            0                       # Number of branches extracted from the predecoder (Count)
system.cpu0.bac.preDecUpdate::DirectUncond            0                       # Number of branches extracted from the predecoder (Count)
system.cpu0.bac.preDecUpdate::IndirectCond            0                       # Number of branches extracted from the predecoder (Count)
system.cpu0.bac.preDecUpdate::IndirectUncond            0                       # Number of branches extracted from the predecoder (Count)
system.cpu0.bac.preDecUpdate::total                 0                       # Number of branches extracted from the predecoder (Count)
system.cpu0.bac.noHistByType::NoBranch              0                       # Number and type of branches that were undetected by the BPU. (Count)
system.cpu0.bac.noHistByType::Return                0                       # Number and type of branches that were undetected by the BPU. (Count)
system.cpu0.bac.noHistByType::CallDirect            0                       # Number and type of branches that were undetected by the BPU. (Count)
system.cpu0.bac.noHistByType::CallIndirect            0                       # Number and type of branches that were undetected by the BPU. (Count)
system.cpu0.bac.noHistByType::DirectCond            0                       # Number and type of branches that were undetected by the BPU. (Count)
system.cpu0.bac.noHistByType::DirectUncond            0                       # Number and type of branches that were undetected by the BPU. (Count)
system.cpu0.bac.noHistByType::IndirectCond            0                       # Number and type of branches that were undetected by the BPU. (Count)
system.cpu0.bac.noHistByType::IndirectUncond            0                       # Number and type of branches that were undetected by the BPU. (Count)
system.cpu0.bac.noHistByType::total                 0                       # Number and type of branches that were undetected by the BPU. (Count)
system.cpu0.bac.typeMissmatch                       0                       # Number branches where the branch type miss match (Count)
system.cpu0.bac.multiBranchInst                     0                       # Number branches because its not the last branch. (Count)
system.cpu0.bac.ftSizeDist::samples                 0                       # Number of bytes per fetch target (Count)
system.cpu0.bac.ftSizeDist::mean                  nan                       # Number of bytes per fetch target (Count)
system.cpu0.bac.ftSizeDist::stdev                 nan                       # Number of bytes per fetch target (Count)
system.cpu0.bac.ftSizeDist::underflows              0                       # Number of bytes per fetch target (Count)
system.cpu0.bac.ftSizeDist::0-3                     0                       # Number of bytes per fetch target (Count)
system.cpu0.bac.ftSizeDist::4-7                     0                       # Number of bytes per fetch target (Count)
system.cpu0.bac.ftSizeDist::8-11                    0                       # Number of bytes per fetch target (Count)
system.cpu0.bac.ftSizeDist::12-15                   0                       # Number of bytes per fetch target (Count)
system.cpu0.bac.ftSizeDist::16-19                   0                       # Number of bytes per fetch target (Count)
system.cpu0.bac.ftSizeDist::20-23                   0                       # Number of bytes per fetch target (Count)
system.cpu0.bac.ftSizeDist::24-27                   0                       # Number of bytes per fetch target (Count)
system.cpu0.bac.ftSizeDist::28-31                   0                       # Number of bytes per fetch target (Count)
system.cpu0.bac.ftSizeDist::32                      0                       # Number of bytes per fetch target (Count)
system.cpu0.bac.ftSizeDist::overflows               0                       # Number of bytes per fetch target (Count)
system.cpu0.bac.ftSizeDist::min_value               0                       # Number of bytes per fetch target (Count)
system.cpu0.bac.ftSizeDist::max_value               0                       # Number of bytes per fetch target (Count)
system.cpu0.bac.ftSizeDist::total                   0                       # Number of bytes per fetch target (Count)
system.cpu0.bac.ftNumber::samples                   0                       # Number of fetch target inserted to the FTQ per cycle (Count)
system.cpu0.bac.ftNumber::mean                    nan                       # Number of fetch target inserted to the FTQ per cycle (Count)
system.cpu0.bac.ftNumber::stdev                   nan                       # Number of fetch target inserted to the FTQ per cycle (Count)
system.cpu0.bac.ftNumber::underflows                0                       # Number of fetch target inserted to the FTQ per cycle (Count)
system.cpu0.bac.ftNumber::0                         0                       # Number of fetch target inserted to the FTQ per cycle (Count)
system.cpu0.bac.ftNumber::1                         0                       # Number of fetch target inserted to the FTQ per cycle (Count)
system.cpu0.bac.ftNumber::2                         0                       # Number of fetch target inserted to the FTQ per cycle (Count)
system.cpu0.bac.ftNumber::3                         0                       # Number of fetch target inserted to the FTQ per cycle (Count)
system.cpu0.bac.ftNumber::4                         0                       # Number of fetch target inserted to the FTQ per cycle (Count)
system.cpu0.bac.ftNumber::overflows                 0                       # Number of fetch target inserted to the FTQ per cycle (Count)
system.cpu0.bac.ftNumber::min_value                 0                       # Number of fetch target inserted to the FTQ per cycle (Count)
system.cpu0.bac.ftNumber::max_value                 0                       # Number of fetch target inserted to the FTQ per cycle (Count)
system.cpu0.bac.ftNumber::total                     0                       # Number of fetch target inserted to the FTQ per cycle (Count)
system.cpu0.branchPred.lookups_0::NoBranch         3111      0.21%      0.21% # Number of BP lookups (Count)
system.cpu0.branchPred.lookups_0::Return        14391      0.99%      1.20% # Number of BP lookups (Count)
system.cpu0.branchPred.lookups_0::CallDirect        18686      1.28%      2.49% # Number of BP lookups (Count)
system.cpu0.branchPred.lookups_0::CallIndirect         1252      0.09%      2.57% # Number of BP lookups (Count)
system.cpu0.branchPred.lookups_0::DirectCond      1388968     95.48%     98.06% # Number of BP lookups (Count)
system.cpu0.branchPred.lookups_0::DirectUncond        18991      1.31%     99.36% # Number of BP lookups (Count)
system.cpu0.branchPred.lookups_0::IndirectCond            0      0.00%     99.36% # Number of BP lookups (Count)
system.cpu0.branchPred.lookups_0::IndirectUncond         9259      0.64%    100.00% # Number of BP lookups (Count)
system.cpu0.branchPred.lookups_0::total       1454658                       # Number of BP lookups (Count)
system.cpu0.branchPred.squashes_0::NoBranch         3004      3.11%      3.11% # Number of branches that got squashed (completely removed) as an earlier branch was mispredicted. (Count)
system.cpu0.branchPred.squashes_0::Return         2491      2.58%      5.69% # Number of branches that got squashed (completely removed) as an earlier branch was mispredicted. (Count)
system.cpu0.branchPred.squashes_0::CallDirect         7400      7.66%     13.35% # Number of branches that got squashed (completely removed) as an earlier branch was mispredicted. (Count)
system.cpu0.branchPred.squashes_0::CallIndirect          633      0.66%     14.01% # Number of branches that got squashed (completely removed) as an earlier branch was mispredicted. (Count)
system.cpu0.branchPred.squashes_0::DirectCond        73832     76.46%     90.46% # Number of branches that got squashed (completely removed) as an earlier branch was mispredicted. (Count)
system.cpu0.branchPred.squashes_0::DirectUncond         4875      5.05%     95.51% # Number of branches that got squashed (completely removed) as an earlier branch was mispredicted. (Count)
system.cpu0.branchPred.squashes_0::IndirectCond            0      0.00%     95.51% # Number of branches that got squashed (completely removed) as an earlier branch was mispredicted. (Count)
system.cpu0.branchPred.squashes_0::IndirectUncond         4334      4.49%    100.00% # Number of branches that got squashed (completely removed) as an earlier branch was mispredicted. (Count)
system.cpu0.branchPred.squashes_0::total        96569                       # Number of branches that got squashed (completely removed) as an earlier branch was mispredicted. (Count)
system.cpu0.branchPred.corrected_0::NoBranch          227      1.48%      1.48% # Number of branches that got corrected but not yet commited. Branches get corrected by decode or after execute. Also a branch misprediction can be detected out-of-order. Therefore, a corrected branch might not end up beeing committed in case an even earlier branch was mispredicted (Count)
system.cpu0.branchPred.corrected_0::Return           13      0.08%      1.56% # Number of branches that got corrected but not yet commited. Branches get corrected by decode or after execute. Also a branch misprediction can be detected out-of-order. Therefore, a corrected branch might not end up beeing committed in case an even earlier branch was mispredicted (Count)
system.cpu0.branchPred.corrected_0::CallDirect          720      4.68%      6.24% # Number of branches that got corrected but not yet commited. Branches get corrected by decode or after execute. Also a branch misprediction can be detected out-of-order. Therefore, a corrected branch might not end up beeing committed in case an even earlier branch was mispredicted (Count)
system.cpu0.branchPred.corrected_0::CallIndirect          281      1.83%      8.06% # Number of branches that got corrected but not yet commited. Branches get corrected by decode or after execute. Also a branch misprediction can be detected out-of-order. Therefore, a corrected branch might not end up beeing committed in case an even earlier branch was mispredicted (Count)
system.cpu0.branchPred.corrected_0::DirectCond        12626     82.05%     90.11% # Number of branches that got corrected but not yet commited. Branches get corrected by decode or after execute. Also a branch misprediction can be detected out-of-order. Therefore, a corrected branch might not end up beeing committed in case an even earlier branch was mispredicted (Count)
system.cpu0.branchPred.corrected_0::DirectUncond          579      3.76%     93.87% # Number of branches that got corrected but not yet commited. Branches get corrected by decode or after execute. Also a branch misprediction can be detected out-of-order. Therefore, a corrected branch might not end up beeing committed in case an even earlier branch was mispredicted (Count)
system.cpu0.branchPred.corrected_0::IndirectCond            0      0.00%     93.87% # Number of branches that got corrected but not yet commited. Branches get corrected by decode or after execute. Also a branch misprediction can be detected out-of-order. Therefore, a corrected branch might not end up beeing committed in case an even earlier branch was mispredicted (Count)
system.cpu0.branchPred.corrected_0::IndirectUncond          943      6.13%    100.00% # Number of branches that got corrected but not yet commited. Branches get corrected by decode or after execute. Also a branch misprediction can be detected out-of-order. Therefore, a corrected branch might not end up beeing committed in case an even earlier branch was mispredicted (Count)
system.cpu0.branchPred.corrected_0::total        15389                       # Number of branches that got corrected but not yet commited. Branches get corrected by decode or after execute. Also a branch misprediction can be detected out-of-order. Therefore, a corrected branch might not end up beeing committed in case an even earlier branch was mispredicted (Count)
system.cpu0.branchPred.earlyResteers_0::NoBranch            0      0.00%      0.00% # Number of branches that got redirected after decode. (Count)
system.cpu0.branchPred.earlyResteers_0::Return            0      0.00%      0.00% # Number of branches that got redirected after decode. (Count)
system.cpu0.branchPred.earlyResteers_0::CallDirect          720     51.36%     51.36% # Number of branches that got redirected after decode. (Count)
system.cpu0.branchPred.earlyResteers_0::CallIndirect            0      0.00%     51.36% # Number of branches that got redirected after decode. (Count)
system.cpu0.branchPred.earlyResteers_0::DirectCond          103      7.35%     58.70% # Number of branches that got redirected after decode. (Count)
system.cpu0.branchPred.earlyResteers_0::DirectUncond          579     41.30%    100.00% # Number of branches that got redirected after decode. (Count)
system.cpu0.branchPred.earlyResteers_0::IndirectCond            0      0.00%    100.00% # Number of branches that got redirected after decode. (Count)
system.cpu0.branchPred.earlyResteers_0::IndirectUncond            0      0.00%    100.00% # Number of branches that got redirected after decode. (Count)
system.cpu0.branchPred.earlyResteers_0::total         1402                       # Number of branches that got redirected after decode. (Count)
system.cpu0.branchPred.committed_0::NoBranch          107      0.01%      0.01% # Number of branches finally committed  (Count)
system.cpu0.branchPred.committed_0::Return        11900      0.88%      0.88% # Number of branches finally committed  (Count)
system.cpu0.branchPred.committed_0::CallDirect        11286      0.83%      1.72% # Number of branches finally committed  (Count)
system.cpu0.branchPred.committed_0::CallIndirect          619      0.05%      1.76% # Number of branches finally committed  (Count)
system.cpu0.branchPred.committed_0::DirectCond      1315129     96.84%     98.60% # Number of branches finally committed  (Count)
system.cpu0.branchPred.committed_0::DirectUncond        14116      1.04%     99.64% # Number of branches finally committed  (Count)
system.cpu0.branchPred.committed_0::IndirectCond            0      0.00%     99.64% # Number of branches finally committed  (Count)
system.cpu0.branchPred.committed_0::IndirectUncond         4925      0.36%    100.00% # Number of branches finally committed  (Count)
system.cpu0.branchPred.committed_0::total      1358082                       # Number of branches finally committed  (Count)
system.cpu0.branchPred.mispredicted_0::NoBranch          107      0.82%      0.82% # Number of committed branches that were mispredicted. (Count)
system.cpu0.branchPred.mispredicted_0::Return            0      0.00%      0.82% # Number of committed branches that were mispredicted. (Count)
system.cpu0.branchPred.mispredicted_0::CallDirect          478      3.68%      4.50% # Number of committed branches that were mispredicted. (Count)
system.cpu0.branchPred.mispredicted_0::CallIndirect          256      1.97%      6.47% # Number of committed branches that were mispredicted. (Count)
system.cpu0.branchPred.mispredicted_0::DirectCond        10880     83.72%     90.19% # Number of committed branches that were mispredicted. (Count)
system.cpu0.branchPred.mispredicted_0::DirectUncond          385      2.96%     93.15% # Number of committed branches that were mispredicted. (Count)
system.cpu0.branchPred.mispredicted_0::IndirectCond            0      0.00%     93.15% # Number of committed branches that were mispredicted. (Count)
system.cpu0.branchPred.mispredicted_0::IndirectUncond          890      6.85%    100.00% # Number of committed branches that were mispredicted. (Count)
system.cpu0.branchPred.mispredicted_0::total        12996                       # Number of committed branches that were mispredicted. (Count)
system.cpu0.branchPred.mispredictDueToPredictor_0::NoBranch          107      1.08%      1.08% # Number of committed branches that were mispredicted by the predictor. (Count)
system.cpu0.branchPred.mispredictDueToPredictor_0::Return            0      0.00%      1.08% # Number of committed branches that were mispredicted by the predictor. (Count)
system.cpu0.branchPred.mispredictDueToPredictor_0::CallDirect            0      0.00%      1.08% # Number of committed branches that were mispredicted by the predictor. (Count)
system.cpu0.branchPred.mispredictDueToPredictor_0::CallIndirect            0      0.00%      1.08% # Number of committed branches that were mispredicted by the predictor. (Count)
system.cpu0.branchPred.mispredictDueToPredictor_0::DirectCond         9802     98.92%    100.00% # Number of committed branches that were mispredicted by the predictor. (Count)
system.cpu0.branchPred.mispredictDueToPredictor_0::DirectUncond            0      0.00%    100.00% # Number of committed branches that were mispredicted by the predictor. (Count)
system.cpu0.branchPred.mispredictDueToPredictor_0::IndirectCond            0      0.00%    100.00% # Number of committed branches that were mispredicted by the predictor. (Count)
system.cpu0.branchPred.mispredictDueToPredictor_0::IndirectUncond            0      0.00%    100.00% # Number of committed branches that were mispredicted by the predictor. (Count)
system.cpu0.branchPred.mispredictDueToPredictor_0::total         9909                       # Number of committed branches that were mispredicted by the predictor. (Count)
system.cpu0.branchPred.mispredictDueToBTBMiss_0::NoBranch            0      0.00%      0.00% # Number of committed branches that were mispredicted because of a BTB miss. (Count)
system.cpu0.branchPred.mispredictDueToBTBMiss_0::Return            0      0.00%      0.00% # Number of committed branches that were mispredicted because of a BTB miss. (Count)
system.cpu0.branchPred.mispredictDueToBTBMiss_0::CallDirect          478     15.48%     15.48% # Number of committed branches that were mispredicted because of a BTB miss. (Count)
system.cpu0.branchPred.mispredictDueToBTBMiss_0::CallIndirect          256      8.29%     23.78% # Number of committed branches that were mispredicted because of a BTB miss. (Count)
system.cpu0.branchPred.mispredictDueToBTBMiss_0::DirectCond         1078     34.92%     58.70% # Number of committed branches that were mispredicted because of a BTB miss. (Count)
system.cpu0.branchPred.mispredictDueToBTBMiss_0::DirectUncond          385     12.47%     71.17% # Number of committed branches that were mispredicted because of a BTB miss. (Count)
system.cpu0.branchPred.mispredictDueToBTBMiss_0::IndirectCond            0      0.00%     71.17% # Number of committed branches that were mispredicted because of a BTB miss. (Count)
system.cpu0.branchPred.mispredictDueToBTBMiss_0::IndirectUncond          890     28.83%    100.00% # Number of committed branches that were mispredicted because of a BTB miss. (Count)
system.cpu0.branchPred.mispredictDueToBTBMiss_0::total         3087                       # Number of committed branches that were mispredicted because of a BTB miss. (Count)
system.cpu0.branchPred.targetProvider_0::NoTarget       197951     13.61%     13.61% # The component providing the target for taken branches (Count)
system.cpu0.branchPred.targetProvider_0::BTB      1237363     85.06%     98.67% # The component providing the target for taken branches (Count)
system.cpu0.branchPred.targetProvider_0::RAS        14391      0.99%     99.66% # The component providing the target for taken branches (Count)
system.cpu0.branchPred.targetProvider_0::Indirect         4953      0.34%    100.00% # The component providing the target for taken branches (Count)
system.cpu0.branchPred.targetProvider_0::total      1454658                       # The component providing the target for taken branches (Count)
system.cpu0.branchPred.targetWrong_0::NoBranch         7749     57.15%     57.15% # Number of branches where the target was incorrect or not available at prediction time. (Count)
system.cpu0.branchPred.targetWrong_0::Return         5703     42.06%     99.22% # Number of branches where the target was incorrect or not available at prediction time. (Count)
system.cpu0.branchPred.targetWrong_0::CallDirect           13      0.10%     99.31% # Number of branches where the target was incorrect or not available at prediction time. (Count)
system.cpu0.branchPred.targetWrong_0::CallIndirect           93      0.69%    100.00% # Number of branches where the target was incorrect or not available at prediction time. (Count)
system.cpu0.branchPred.targetWrong_0::DirectCond            0      0.00%    100.00% # Number of branches where the target was incorrect or not available at prediction time. (Count)
system.cpu0.branchPred.targetWrong_0::DirectUncond            0      0.00%    100.00% # Number of branches where the target was incorrect or not available at prediction time. (Count)
system.cpu0.branchPred.targetWrong_0::IndirectCond            0      0.00%    100.00% # Number of branches where the target was incorrect or not available at prediction time. (Count)
system.cpu0.branchPred.targetWrong_0::IndirectUncond            0      0.00%    100.00% # Number of branches where the target was incorrect or not available at prediction time. (Count)
system.cpu0.branchPred.targetWrong_0::total        13558                       # Number of branches where the target was incorrect or not available at prediction time. (Count)
system.cpu0.branchPred.condPredicted          1388968                       # Number of conditional branches predicted (Count)
system.cpu0.branchPred.condPredictedTaken      1200686                       # Number of conditional branches predicted as taken (Count)
system.cpu0.branchPred.condIncorrect            12996                       # Number of conditional branches incorrect (Count)
system.cpu0.branchPred.predTakenBTBMiss          1702                       # Number of branches predicted taken but missed in BTB (Count)
system.cpu0.branchPred.BTBLookups             1454658                       # Number of BTB lookups (Count)
system.cpu0.branchPred.BTBUpdates                7766                       # Number of BTB updates (Count)
system.cpu0.branchPred.BTBHits                1316164                       # Number of BTB hits (Count)
system.cpu0.branchPred.BTBHitRatio           0.904793                       # BTB Hit Ratio (Ratio)
system.cpu0.branchPred.BTBMispredicted           2599                       # Number BTB mispredictions. No target found or target wrong (Count)
system.cpu0.branchPred.indirectLookups          10511                       # Number of indirect predictor lookups. (Count)
system.cpu0.branchPred.indirectHits              4953                       # Number of indirect target hits. (Count)
system.cpu0.branchPred.indirectMisses            5558                       # Number of indirect misses. (Count)
system.cpu0.branchPred.indirectMispredicted            0                       # Number of mispredicted indirect branches. (Count)
system.cpu0.branchPred.btb.lookups::NoBranch         3111      0.21%      0.21% # Number of BTB lookups (Count)
system.cpu0.branchPred.btb.lookups::Return        14391      0.99%      1.20% # Number of BTB lookups (Count)
system.cpu0.branchPred.btb.lookups::CallDirect        18686      1.28%      2.49% # Number of BTB lookups (Count)
system.cpu0.branchPred.btb.lookups::CallIndirect         1252      0.09%      2.57% # Number of BTB lookups (Count)
system.cpu0.branchPred.btb.lookups::DirectCond      1388968     95.48%     98.06% # Number of BTB lookups (Count)
system.cpu0.branchPred.btb.lookups::DirectUncond        18991      1.31%     99.36% # Number of BTB lookups (Count)
system.cpu0.branchPred.btb.lookups::IndirectCond            0      0.00%     99.36% # Number of BTB lookups (Count)
system.cpu0.branchPred.btb.lookups::IndirectUncond         9259      0.64%    100.00% # Number of BTB lookups (Count)
system.cpu0.branchPred.btb.lookups::total      1454658                       # Number of BTB lookups (Count)
system.cpu0.branchPred.btb.misses::NoBranch          260      0.19%      0.19% # Number of BTB misses (Count)
system.cpu0.branchPred.btb.misses::Return        14391     10.39%     10.58% # Number of BTB misses (Count)
system.cpu0.branchPred.btb.misses::CallDirect         1075      0.78%     11.36% # Number of BTB misses (Count)
system.cpu0.branchPred.btb.misses::CallIndirect         1252      0.90%     12.26% # Number of BTB misses (Count)
system.cpu0.branchPred.btb.misses::DirectCond       111454     80.48%     92.73% # Number of BTB misses (Count)
system.cpu0.branchPred.btb.misses::DirectUncond          803      0.58%     93.31% # Number of BTB misses (Count)
system.cpu0.branchPred.btb.misses::IndirectCond            0      0.00%     93.31% # Number of BTB misses (Count)
system.cpu0.branchPred.btb.misses::IndirectUncond         9259      6.69%    100.00% # Number of BTB misses (Count)
system.cpu0.branchPred.btb.misses::total       138494                       # Number of BTB misses (Count)
system.cpu0.branchPred.btb.updates::NoBranch          227      2.92%      2.92% # Number of BTB updates (Count)
system.cpu0.branchPred.btb.updates::Return            0      0.00%      2.92% # Number of BTB updates (Count)
system.cpu0.branchPred.btb.updates::CallDirect          720      9.27%     12.19% # Number of BTB updates (Count)
system.cpu0.branchPred.btb.updates::CallIndirect            0      0.00%     12.19% # Number of BTB updates (Count)
system.cpu0.branchPred.btb.updates::DirectCond         6240     80.35%     92.54% # Number of BTB updates (Count)
system.cpu0.branchPred.btb.updates::DirectUncond          579      7.46%    100.00% # Number of BTB updates (Count)
system.cpu0.branchPred.btb.updates::IndirectCond            0      0.00%    100.00% # Number of BTB updates (Count)
system.cpu0.branchPred.btb.updates::IndirectUncond            0      0.00%    100.00% # Number of BTB updates (Count)
system.cpu0.branchPred.btb.updates::total         7766                       # Number of BTB updates (Count)
system.cpu0.branchPred.btb.mispredict::NoBranch          227      2.92%      2.92% # Number of BTB mispredictions. No target found or target wrong. (Count)
system.cpu0.branchPred.btb.mispredict::Return            0      0.00%      2.92% # Number of BTB mispredictions. No target found or target wrong. (Count)
system.cpu0.branchPred.btb.mispredict::CallDirect          720      9.27%     12.19% # Number of BTB mispredictions. No target found or target wrong. (Count)
system.cpu0.branchPred.btb.mispredict::CallIndirect            0      0.00%     12.19% # Number of BTB mispredictions. No target found or target wrong. (Count)
system.cpu0.branchPred.btb.mispredict::DirectCond         6240     80.35%     92.54% # Number of BTB mispredictions. No target found or target wrong. (Count)
system.cpu0.branchPred.btb.mispredict::DirectUncond          579      7.46%    100.00% # Number of BTB mispredictions. No target found or target wrong. (Count)
system.cpu0.branchPred.btb.mispredict::IndirectCond            0      0.00%    100.00% # Number of BTB mispredictions. No target found or target wrong. (Count)
system.cpu0.branchPred.btb.mispredict::IndirectUncond            0      0.00%    100.00% # Number of BTB mispredictions. No target found or target wrong. (Count)
system.cpu0.branchPred.btb.mispredict::total         7766                       # Number of BTB mispredictions. No target found or target wrong. (Count)
system.cpu0.branchPred.btb.power_state.pwrStateResidencyTicks::UNDEFINED  45078751000                       # Cumulative time (in ticks) in various power states (Tick)
system.cpu0.branchPred.indirectBranchPred.lookups        10511                       # Number of lookups (Count)
system.cpu0.branchPred.indirectBranchPred.hits         4953                       # Number of hits of a tag (Count)
system.cpu0.branchPred.indirectBranchPred.misses         5558                       # Number of misses (Count)
system.cpu0.branchPred.indirectBranchPred.targetRecords         1224                       # Number of targets that where recorded/installed in the cache (Count)
system.cpu0.branchPred.indirectBranchPred.indirectRecords        11735                       # Number of indirect branches/calls recorded in the indirect hist (Count)
system.cpu0.branchPred.indirectBranchPred.speculativeOverflows            1                       # Number of times more than the allowed capacity for speculative branches/calls where in flight and destroy the path history (Count)
system.cpu0.branchPred.ras.pushes               22429                       # Number of times a PC was pushed onto the RAS (Count)
system.cpu0.branchPred.ras.pops                 22424                       # Number of times a PC was poped from the RAS (Count)
system.cpu0.branchPred.ras.squashes             10524                       # Number of times the stack operation was squashed due to wrong speculation. (Count)
system.cpu0.branchPred.ras.used                 11900                       # Number of times the RAS is the provider (Count)
system.cpu0.branchPred.ras.correct              11900                       # Number of times the RAS is the provider and the prediction is correct (Count)
system.cpu0.branchPred.ras.incorrect                0                       # Number of times the RAS is the provider and the prediction is wrong (Count)
system.cpu0.commit.status::running           89985299     99.99%     99.99% # Number of cycles commit is running (Cycle)
system.cpu0.commit.status::idle                     1      0.00%     99.99% # Number of cycles commit is idle (Cycle)
system.cpu0.commit.status::trapPending           7616      0.01%    100.00% # Number of cycles commit is processing a trap (Cycle)
system.cpu0.commit.commitSquashedInsts         670832                       # The number of squashed insts skipped by commit (Count)
system.cpu0.commit.commitNonSpecStalls        3001428                       # The number of times commit has been forced to stall to communicate backwards (Count)
system.cpu0.commit.branchMispredicts            14533                       # The number of times a branch was mispredicted (Count)
system.cpu0.commit.numCommittedDist::samples     89977719                       # Number of insts commited each cycle (Count)
system.cpu0.commit.numCommittedDist::mean     0.176179                       # Number of insts commited each cycle (Count)
system.cpu0.commit.numCommittedDist::stdev     0.995951                       # Number of insts commited each cycle (Count)
system.cpu0.commit.numCommittedDist::underflows            0      0.00%      0.00% # Number of insts commited each cycle (Count)
system.cpu0.commit.numCommittedDist::0       84056406     93.42%     93.42% # Number of insts commited each cycle (Count)
system.cpu0.commit.numCommittedDist::1        4279180      4.76%     98.17% # Number of insts commited each cycle (Count)
system.cpu0.commit.numCommittedDist::2          86812      0.10%     98.27% # Number of insts commited each cycle (Count)
system.cpu0.commit.numCommittedDist::3         155804      0.17%     98.44% # Number of insts commited each cycle (Count)
system.cpu0.commit.numCommittedDist::4          24580      0.03%     98.47% # Number of insts commited each cycle (Count)
system.cpu0.commit.numCommittedDist::5          14331      0.02%     98.49% # Number of insts commited each cycle (Count)
system.cpu0.commit.numCommittedDist::6          13388      0.01%     98.50% # Number of insts commited each cycle (Count)
system.cpu0.commit.numCommittedDist::7          96049      0.11%     98.61% # Number of insts commited each cycle (Count)
system.cpu0.commit.numCommittedDist::8        1251169      1.39%    100.00% # Number of insts commited each cycle (Count)
system.cpu0.commit.numCommittedDist::overflows            0      0.00%    100.00% # Number of insts commited each cycle (Count)
system.cpu0.commit.numCommittedDist::min_value            0                       # Number of insts commited each cycle (Count)
system.cpu0.commit.numCommittedDist::max_value            8                       # Number of insts commited each cycle (Count)
system.cpu0.commit.numCommittedDist::total     89977719                       # Number of insts commited each cycle (Count)
system.cpu0.commit.amos                             0                       # Number of atomic instructions committed (Count)
system.cpu0.commit.membars                    2000364                       # Number of memory barriers committed (Count)
system.cpu0.commit.committedInstType_0::No_OpClass        14713      0.09%      0.09% # Class of committed instruction (Count)
system.cpu0.commit.committedInstType_0::IntAlu     13007552     82.06%     82.15% # Class of committed instruction (Count)
system.cpu0.commit.committedInstType_0::IntMult           53      0.00%     82.15% # Class of committed instruction (Count)
system.cpu0.commit.committedInstType_0::IntDiv        36567      0.23%     82.38% # Class of committed instruction (Count)
system.cpu0.commit.committedInstType_0::FloatAdd         6909      0.04%     82.42% # Class of committed instruction (Count)
system.cpu0.commit.committedInstType_0::FloatCmp            0      0.00%     82.42% # Class of committed instruction (Count)
system.cpu0.commit.committedInstType_0::FloatCvt         1568      0.01%     82.43% # Class of committed instruction (Count)
system.cpu0.commit.committedInstType_0::FloatMult            0      0.00%     82.43% # Class of committed instruction (Count)
system.cpu0.commit.committedInstType_0::FloatMultAcc            0      0.00%     82.43% # Class of committed instruction (Count)
system.cpu0.commit.committedInstType_0::FloatDiv            0      0.00%     82.43% # Class of committed instruction (Count)
system.cpu0.commit.committedInstType_0::FloatMisc            0      0.00%     82.43% # Class of committed instruction (Count)
system.cpu0.commit.committedInstType_0::FloatSqrt            0      0.00%     82.43% # Class of committed instruction (Count)
system.cpu0.commit.committedInstType_0::SimdAdd         6160      0.04%     82.47% # Class of committed instruction (Count)
system.cpu0.commit.committedInstType_0::SimdAddAcc            0      0.00%     82.47% # Class of committed instruction (Count)
system.cpu0.commit.committedInstType_0::SimdAlu        12019      0.08%     82.55% # Class of committed instruction (Count)
system.cpu0.commit.committedInstType_0::SimdCmp            0      0.00%     82.55% # Class of committed instruction (Count)
system.cpu0.commit.committedInstType_0::SimdCvt        12426      0.08%     82.63% # Class of committed instruction (Count)
system.cpu0.commit.committedInstType_0::SimdMisc        13351      0.08%     82.71% # Class of committed instruction (Count)
system.cpu0.commit.committedInstType_0::SimdMult            0      0.00%     82.71% # Class of committed instruction (Count)
system.cpu0.commit.committedInstType_0::SimdMultAcc            0      0.00%     82.71% # Class of committed instruction (Count)
system.cpu0.commit.committedInstType_0::SimdMatMultAcc            0      0.00%     82.71% # Class of committed instruction (Count)
system.cpu0.commit.committedInstType_0::SimdShift          908      0.01%     82.72% # Class of committed instruction (Count)
system.cpu0.commit.committedInstType_0::SimdShiftAcc            0      0.00%     82.72% # Class of committed instruction (Count)
system.cpu0.commit.committedInstType_0::SimdDiv            0      0.00%     82.72% # Class of committed instruction (Count)
system.cpu0.commit.committedInstType_0::SimdSqrt            0      0.00%     82.72% # Class of committed instruction (Count)
system.cpu0.commit.committedInstType_0::SimdFloatAdd            0      0.00%     82.72% # Class of committed instruction (Count)
system.cpu0.commit.committedInstType_0::SimdFloatAlu            0      0.00%     82.72% # Class of committed instruction (Count)
system.cpu0.commit.committedInstType_0::SimdFloatCmp            0      0.00%     82.72% # Class of committed instruction (Count)
system.cpu0.commit.committedInstType_0::SimdFloatCvt            0      0.00%     82.72% # Class of committed instruction (Count)
system.cpu0.commit.committedInstType_0::SimdFloatDiv            0      0.00%     82.72% # Class of committed instruction (Count)
system.cpu0.commit.committedInstType_0::SimdFloatMisc            0      0.00%     82.72% # Class of committed instruction (Count)
system.cpu0.commit.committedInstType_0::SimdFloatMult            0      0.00%     82.72% # Class of committed instruction (Count)
system.cpu0.commit.committedInstType_0::SimdFloatMultAcc            0      0.00%     82.72% # Class of committed instruction (Count)
system.cpu0.commit.committedInstType_0::SimdFloatMatMultAcc            0      0.00%     82.72% # Class of committed instruction (Count)
system.cpu0.commit.committedInstType_0::SimdFloatSqrt            0      0.00%     82.72% # Class of committed instruction (Count)
system.cpu0.commit.committedInstType_0::SimdReduceAdd            0      0.00%     82.72% # Class of committed instruction (Count)
system.cpu0.commit.committedInstType_0::SimdReduceAlu            0      0.00%     82.72% # Class of committed instruction (Count)
system.cpu0.commit.committedInstType_0::SimdReduceCmp            0      0.00%     82.72% # Class of committed instruction (Count)
system.cpu0.commit.committedInstType_0::SimdFloatReduceAdd            0      0.00%     82.72% # Class of committed instruction (Count)
system.cpu0.commit.committedInstType_0::SimdFloatReduceCmp            0      0.00%     82.72% # Class of committed instruction (Count)
system.cpu0.commit.committedInstType_0::SimdAes            0      0.00%     82.72% # Class of committed instruction (Count)
system.cpu0.commit.committedInstType_0::SimdAesMix            0      0.00%     82.72% # Class of committed instruction (Count)
system.cpu0.commit.committedInstType_0::SimdSha1Hash            0      0.00%     82.72% # Class of committed instruction (Count)
system.cpu0.commit.committedInstType_0::SimdSha1Hash2            0      0.00%     82.72% # Class of committed instruction (Count)
system.cpu0.commit.committedInstType_0::SimdSha256Hash            0      0.00%     82.72% # Class of committed instruction (Count)
system.cpu0.commit.committedInstType_0::SimdSha256Hash2            0      0.00%     82.72% # Class of committed instruction (Count)
system.cpu0.commit.committedInstType_0::SimdShaSigma2            0      0.00%     82.72% # Class of committed instruction (Count)
system.cpu0.commit.committedInstType_0::SimdShaSigma3            0      0.00%     82.72% # Class of committed instruction (Count)
system.cpu0.commit.committedInstType_0::SimdSha3            0      0.00%     82.72% # Class of committed instruction (Count)
system.cpu0.commit.committedInstType_0::SimdSm4e            0      0.00%     82.72% # Class of committed instruction (Count)
system.cpu0.commit.committedInstType_0::SimdCrc            0      0.00%     82.72% # Class of committed instruction (Count)
system.cpu0.commit.committedInstType_0::SimdPredAlu            0      0.00%     82.72% # Class of committed instruction (Count)
system.cpu0.commit.committedInstType_0::SimdDotProd            0      0.00%     82.72% # Class of committed instruction (Count)
system.cpu0.commit.committedInstType_0::Matrix            0      0.00%     82.72% # Class of committed instruction (Count)
system.cpu0.commit.committedInstType_0::MatrixMov            0      0.00%     82.72% # Class of committed instruction (Count)
system.cpu0.commit.committedInstType_0::MatrixOP            0      0.00%     82.72% # Class of committed instruction (Count)
system.cpu0.commit.committedInstType_0::MemRead      1512899      9.54%     92.26% # Class of committed instruction (Count)
system.cpu0.commit.committedInstType_0::MemWrite      1195353      7.54%     99.80% # Class of committed instruction (Count)
system.cpu0.commit.committedInstType_0::FloatMemRead        16618      0.10%     99.90% # Class of committed instruction (Count)
system.cpu0.commit.committedInstType_0::FloatMemWrite        15118      0.10%    100.00% # Class of committed instruction (Count)
system.cpu0.commit.committedInstType_0::InstPrefetch            0      0.00%    100.00% # Class of committed instruction (Count)
system.cpu0.commit.committedInstType_0::SimdUnitStrideLoad            0      0.00%    100.00% # Class of committed instruction (Count)
system.cpu0.commit.committedInstType_0::SimdUnitStrideStore            0      0.00%    100.00% # Class of committed instruction (Count)
system.cpu0.commit.committedInstType_0::SimdUnitStrideMaskLoad            0      0.00%    100.00% # Class of committed instruction (Count)
system.cpu0.commit.committedInstType_0::SimdUnitStrideMaskStore            0      0.00%    100.00% # Class of committed instruction (Count)
system.cpu0.commit.committedInstType_0::SimdStridedLoad            0      0.00%    100.00% # Class of committed instruction (Count)
system.cpu0.commit.committedInstType_0::SimdStridedStore            0      0.00%    100.00% # Class of committed instruction (Count)
system.cpu0.commit.committedInstType_0::SimdIndexedLoad            0      0.00%    100.00% # Class of committed instruction (Count)
system.cpu0.commit.committedInstType_0::SimdIndexedStore            0      0.00%    100.00% # Class of committed instruction (Count)
system.cpu0.commit.committedInstType_0::SimdWholeRegisterLoad            0      0.00%    100.00% # Class of committed instruction (Count)
system.cpu0.commit.committedInstType_0::SimdWholeRegisterStore            0      0.00%    100.00% # Class of committed instruction (Count)
system.cpu0.commit.committedInstType_0::SimdUnitStrideFaultOnlyFirstLoad            0      0.00%    100.00% # Class of committed instruction (Count)
system.cpu0.commit.committedInstType_0::SimdUnitStrideSegmentedLoad            0      0.00%    100.00% # Class of committed instruction (Count)
system.cpu0.commit.committedInstType_0::SimdUnitStrideSegmentedStore            0      0.00%    100.00% # Class of committed instruction (Count)
system.cpu0.commit.committedInstType_0::SimdUnitStrideSegmentedFaultOnlyFirstLoad            0      0.00%    100.00% # Class of committed instruction (Count)
system.cpu0.commit.committedInstType_0::SimdStrideSegmentedLoad            0      0.00%    100.00% # Class of committed instruction (Count)
system.cpu0.commit.committedInstType_0::SimdStrideSegmentedStore            0      0.00%    100.00% # Class of committed instruction (Count)
system.cpu0.commit.committedInstType_0::SimdExt            0      0.00%    100.00% # Class of committed instruction (Count)
system.cpu0.commit.committedInstType_0::SimdFloatExt            0      0.00%    100.00% # Class of committed instruction (Count)
system.cpu0.commit.committedInstType_0::SimdConfig            0      0.00%    100.00% # Class of committed instruction (Count)
system.cpu0.commit.committedInstType_0::SimdBf16Add            0      0.00%    100.00% # Class of committed instruction (Count)
system.cpu0.commit.committedInstType_0::SimdBf16Cmp            0      0.00%    100.00% # Class of committed instruction (Count)
system.cpu0.commit.committedInstType_0::SimdBf16Cvt            0      0.00%    100.00% # Class of committed instruction (Count)
[...]
system.ruby.network.routers6.port_buffers1.m_stall_time        11500                       # Total number of ticks messages were stalled in this buffer (Tick)
system.ruby.network.routers6.port_buffers1.m_avg_stall_time     0.011111                       # Average stall ticks per message ((Tick/Count))
system.ruby.network.routers6.port_buffers10.m_msg_count      1000273                       # Number of messages passed the buffer (Count)
system.ruby.network.routers6.port_buffers10.m_buf_msgs     0.011095                       # Average number of messages in buffer ((Count/Tick))
system.ruby.network.routers6.port_buffers10.m_stall_time        32500                       # Total number of ticks messages were stalled in this buffer (Tick)
system.ruby.network.routers6.port_buffers10.m_avg_stall_time     0.032491                       # Average stall ticks per message ((Tick/Count))
system.ruby.network.routers6.port_buffers11.m_msg_count      1000028                       # Number of messages passed the buffer (Count)
system.ruby.network.routers6.port_buffers11.m_buf_msgs     0.011092                       # Average number of messages in buffer ((Count/Tick))
system.ruby.network.routers6.port_buffers12.m_msg_count      4035733                       # Number of messages passed the buffer (Count)
system.ruby.network.routers6.port_buffers12.m_buf_msgs     0.044776                       # Average number of messages in buffer ((Count/Tick))
system.ruby.network.routers6.port_buffers12.m_stall_time       596000                       # Total number of ticks messages were stalled in this buffer (Tick)
system.ruby.network.routers6.port_buffers12.m_avg_stall_time     0.147681                       # Average stall ticks per message ((Tick/Count))
system.ruby.network.routers6.port_buffers13.m_msg_count        12718                       # Number of messages passed the buffer (Count)
system.ruby.network.routers6.port_buffers13.m_buf_msgs     0.000141                       # Average number of messages in buffer ((Count/Tick))
system.ruby.network.routers6.port_buffers13.m_stall_time        11500                       # Total number of ticks messages were stalled in this buffer (Tick)
system.ruby.network.routers6.port_buffers13.m_avg_stall_time     0.904230                       # Average stall ticks per message ((Tick/Count))
system.ruby.network.routers6.port_buffers14.m_msg_count      4016448                       # Number of messages passed the buffer (Count)
system.ruby.network.routers6.port_buffers14.m_buf_msgs     0.044549                       # Average number of messages in buffer ((Count/Tick))
system.ruby.network.routers6.port_buffers14.m_stall_time         1500                       # Total number of ticks messages were stalled in this buffer (Tick)
system.ruby.network.routers6.port_buffers14.m_avg_stall_time     0.000373                       # Average stall ticks per message ((Tick/Count))
system.ruby.network.routers6.port_buffers15.m_msg_count        12610                       # Number of messages passed the buffer (Count)
system.ruby.network.routers6.port_buffers15.m_buf_msgs     0.000140                       # Average number of messages in buffer ((Count/Tick))
system.ruby.network.routers6.port_buffers2.m_msg_count      1000119                       # Number of messages passed the buffer (Count)
system.ruby.network.routers6.port_buffers2.m_buf_msgs     0.011093                       # Average number of messages in buffer ((Count/Tick))
system.ruby.network.routers6.port_buffers4.m_msg_count      1000253                       # Number of messages passed the buffer (Count)
system.ruby.network.routers6.port_buffers4.m_buf_msgs     0.011095                       # Average number of messages in buffer ((Count/Tick))
system.ruby.network.routers6.port_buffers4.m_stall_time         2000                       # Total number of ticks messages were stalled in this buffer (Tick)
system.ruby.network.routers6.port_buffers4.m_avg_stall_time     0.001999                       # Average stall ticks per message ((Tick/Count))
system.ruby.network.routers6.port_buffers5.m_msg_count      1000036                       # Number of messages passed the buffer (Count)
system.ruby.network.routers6.port_buffers5.m_buf_msgs     0.011092                       # Average number of messages in buffer ((Count/Tick))
system.ruby.network.routers6.port_buffers7.m_msg_count      1000270                       # Number of messages passed the buffer (Count)
system.ruby.network.routers6.port_buffers7.m_buf_msgs     0.011095                       # Average number of messages in buffer ((Count/Tick))
system.ruby.network.routers6.port_buffers7.m_stall_time        19000                       # Total number of ticks messages were stalled in this buffer (Tick)
system.ruby.network.routers6.port_buffers7.m_avg_stall_time     0.018995                       # Average stall ticks per message ((Tick/Count))
system.ruby.network.routers6.port_buffers8.m_msg_count      1000034                       # Number of messages passed the buffer (Count)
system.ruby.network.routers6.port_buffers8.m_buf_msgs     0.011092                       # Average number of messages in buffer ((Count/Tick))
system.ruby.network.routers6.power_state.pwrStateResidencyTicks::UNDEFINED  45078751000                       # Cumulative time (in ticks) in various power states (Tick)
system.ruby.network.routers6.throttle00.acc_link_utilization      5096640                       # Accumulated link utilization system.ruby.network.int_links06 (Count)
system.ruby.network.routers6.throttle00.link_utilization     5.653040                       # Average link utilization (Ratio)
system.ruby.network.routers6.throttle00.total_msg_count      2035128                       # Total number of messages forwarded by this switch (Count)
system.ruby.network.routers6.throttle00.total_msg_bytes     81546240                       # Total number of bytes forwarded by this switch (Byte)
system.ruby.network.routers6.throttle00.total_data_msg_bytes     65265216                       # Total number of data bytes forwarded by this switch (Byte)
system.ruby.network.routers6.throttle00.total_msg_wait_time        11500                       # Total time spend forwarding messages (Tick)
system.ruby.network.routers6.throttle00.total_stall_cy            0                       # Total time spent blocked on any output link (Cycle)
system.ruby.network.routers6.throttle00.total_bw_sat_cy      4079085                       # Total time bandwidth was saturated on any output link (Cycle)
system.ruby.network.routers6.throttle00.avg_msg_wait_time     0.005651                       # Average time a message took to be forwarded (Ratio)
system.ruby.network.routers6.throttle00.avg_bandwidth         1.68                       # Average bandwidth (GB/s) (Ratio)
system.ruby.network.routers6.throttle00.avg_useful_bandwidth         1.35                       # Average useful (only data) bandwidth (GB/s) (Ratio)
system.ruby.network.routers6.throttle00.msg_count.Request_Control::2      1000119                       (Unspecified)
system.ruby.network.routers6.throttle00.msg_bytes.Request_Control::2      8000952                       (Unspecified)
system.ruby.network.routers6.throttle00.msg_count.Response_Data::1      1019769                       (Unspecified)
system.ruby.network.routers6.throttle00.msg_bytes.Response_Data::1     73423368                       (Unspecified)
system.ruby.network.routers6.throttle00.msg_count.Response_Control::1        15240                       (Unspecified)
system.ruby.network.routers6.throttle00.msg_bytes.Response_Control::1       121920                       (Unspecified)
system.ruby.network.routers6.throttle01.acc_link_utilization 5001104.500000                       # Accumulated link utilization system.ruby.network.int_links07 (Count)
system.ruby.network.routers6.throttle01.link_utilization     5.547075                       # Average link utilization (Ratio)
system.ruby.network.routers6.throttle01.total_msg_count      2000289                       # Total number of messages forwarded by this switch (Count)
system.ruby.network.routers6.throttle01.total_msg_bytes     80017672                       # Total number of bytes forwarded by this switch (Byte)
system.ruby.network.routers6.throttle01.total_data_msg_bytes     64015360                       # Total number of data bytes forwarded by this switch (Byte)
system.ruby.network.routers6.throttle01.total_msg_wait_time         2000                       # Total time spend forwarding messages (Tick)
system.ruby.network.routers6.throttle01.total_stall_cy            0                       # Total time spent blocked on any output link (Cycle)
system.ruby.network.routers6.throttle01.total_bw_sat_cy      4000960                       # Total time bandwidth was saturated on any output link (Cycle)
system.ruby.network.routers6.throttle01.avg_msg_wait_time     0.001000                       # Average time a message took to be forwarded (Ratio)
system.ruby.network.routers6.throttle01.avg_bandwidth         1.65                       # Average bandwidth (GB/s) (Ratio)
system.ruby.network.routers6.throttle01.avg_useful_bandwidth         1.32                       # Average useful (only data) bandwidth (GB/s) (Ratio)
system.ruby.network.routers6.throttle01.msg_count.Request_Control::2      1000036                       (Unspecified)
system.ruby.network.routers6.throttle01.msg_bytes.Request_Control::2      8000288                       (Unspecified)
system.ruby.network.routers6.throttle01.msg_count.Response_Data::1      1000240                       (Unspecified)
system.ruby.network.routers6.throttle01.msg_bytes.Response_Data::1     72017280                       (Unspecified)
system.ruby.network.routers6.throttle01.msg_count.Response_Control::1           13                       (Unspecified)
system.ruby.network.routers6.throttle01.msg_bytes.Response_Control::1          104                       (Unspecified)
system.ruby.network.routers6.throttle02.acc_link_utilization      5001132                       # Accumulated link utilization system.ruby.network.int_links08 (Count)
system.ruby.network.routers6.throttle02.link_utilization     5.547106                       # Average link utilization (Ratio)
system.ruby.network.routers6.throttle02.total_msg_count      2000304                       # Total number of messages forwarded by this switch (Count)
system.ruby.network.routers6.throttle02.total_msg_bytes     80018112                       # Total number of bytes forwarded by this switch (Byte)
system.ruby.network.routers6.throttle02.total_data_msg_bytes     64015680                       # Total number of data bytes forwarded by this switch (Byte)
system.ruby.network.routers6.throttle02.total_msg_wait_time        19000                       # Total time spend forwarding messages (Tick)
system.ruby.network.routers6.throttle02.total_stall_cy            0                       # Total time spent blocked on any output link (Cycle)
system.ruby.network.routers6.throttle02.total_bw_sat_cy      4000986                       # Total time bandwidth was saturated on any output link (Cycle)
system.ruby.network.routers6.throttle02.avg_msg_wait_time     0.009499                       # Average time a message took to be forwarded (Ratio)
system.ruby.network.routers6.throttle02.avg_bandwidth         1.65                       # Average bandwidth (GB/s) (Ratio)
system.ruby.network.routers6.throttle02.avg_useful_bandwidth         1.32                       # Average useful (only data) bandwidth (GB/s) (Ratio)
system.ruby.network.routers6.throttle02.msg_count.Request_Control::2      1000034                       (Unspecified)
system.ruby.network.routers6.throttle02.msg_bytes.Request_Control::2      8000272                       (Unspecified)
system.ruby.network.routers6.throttle02.msg_count.Response_Data::1      1000245                       (Unspecified)
system.ruby.network.routers6.throttle02.msg_bytes.Response_Data::1     72017640                       (Unspecified)
system.ruby.network.routers6.throttle02.msg_count.Response_Control::1           25                       (Unspecified)
system.ruby.network.routers6.throttle02.msg_bytes.Response_Control::1          200                       (Unspecified)
system.ruby.network.routers6.throttle03.acc_link_utilization 5001130.500000                       # Accumulated link utilization system.ruby.network.int_links09 (Count)
system.ruby.network.routers6.throttle03.link_utilization     5.547104                       # Average link utilization (Ratio)
system.ruby.network.routers6.throttle03.total_msg_count      2000301                       # Total number of messages forwarded by this switch (Count)
system.ruby.network.routers6.throttle03.total_msg_bytes     80018088                       # Total number of bytes forwarded by this switch (Byte)
system.ruby.network.routers6.throttle03.total_data_msg_bytes     64015680                       # Total number of data bytes forwarded by this switch (Byte)
system.ruby.network.routers6.throttle03.total_msg_wait_time        32500                       # Total time spend forwarding messages (Tick)
system.ruby.network.routers6.throttle03.total_stall_cy            0                       # Total time spent blocked on any output link (Cycle)
system.ruby.network.routers6.throttle03.total_bw_sat_cy      4000986                       # Total time bandwidth was saturated on any output link (Cycle)
system.ruby.network.routers6.throttle03.avg_msg_wait_time     0.016248                       # Average time a message took to be forwarded (Ratio)
system.ruby.network.routers6.throttle03.avg_bandwidth         1.65                       # Average bandwidth (GB/s) (Ratio)
system.ruby.network.routers6.throttle03.avg_useful_bandwidth         1.32                       # Average useful (only data) bandwidth (GB/s) (Ratio)
system.ruby.network.routers6.throttle03.msg_count.Request_Control::2      1000028                       (Unspecified)
system.ruby.network.routers6.throttle03.msg_bytes.Request_Control::2      8000224                       (Unspecified)
system.ruby.network.routers6.throttle03.msg_count.Response_Data::1      1000245                       (Unspecified)
system.ruby.network.routers6.throttle03.msg_bytes.Response_Data::1     72017640                       (Unspecified)
system.ruby.network.routers6.throttle03.msg_count.Response_Control::1           28                       (Unspecified)
system.ruby.network.routers6.throttle03.msg_bytes.Response_Control::1          224                       (Unspecified)
system.ruby.network.routers6.throttle04.acc_link_utilization 4093753.500000                       # Accumulated link utilization system.ruby.network.int_links10 (Count)
system.ruby.network.routers6.throttle04.link_utilization     4.540669                       # Average link utilization (Ratio)
system.ruby.network.routers6.throttle04.total_msg_count      8064899                       # Total number of messages forwarded by this switch (Count)
system.ruby.network.routers6.throttle04.total_msg_bytes     65500056                       # Total number of bytes forwarded by this switch (Byte)
system.ruby.network.routers6.throttle04.total_data_msg_bytes       980864                       # Total number of data bytes forwarded by this switch (Byte)
system.ruby.network.routers6.throttle04.total_msg_wait_time       609000                       # Total time spend forwarding messages (Tick)
system.ruby.network.routers6.throttle04.total_stall_cy            0                       # Total time spent blocked on any output link (Cycle)
system.ruby.network.routers6.throttle04.total_bw_sat_cy        61543                       # Total time bandwidth was saturated on any output link (Cycle)
system.ruby.network.routers6.throttle04.avg_msg_wait_time     0.075512                       # Average time a message took to be forwarded (Ratio)
system.ruby.network.routers6.throttle04.avg_bandwidth         1.35                       # Average bandwidth (GB/s) (Ratio)
system.ruby.network.routers6.throttle04.avg_useful_bandwidth         0.02                       # Average useful (only data) bandwidth (GB/s) (Ratio)
system.ruby.network.routers6.throttle04.msg_count.Control::0      4020548                       (Unspecified)
system.ruby.network.routers6.throttle04.msg_bytes.Control::0     32164384                       (Unspecified)
system.ruby.network.routers6.throttle04.msg_count.Response_Data::1        12718                       (Unspecified)
system.ruby.network.routers6.throttle04.msg_bytes.Response_Data::1       915696                       (Unspecified)
system.ruby.network.routers6.throttle04.msg_count.Response_Control::2      4016448                       (Unspecified)
system.ruby.network.routers6.throttle04.msg_bytes.Response_Control::2     32131584                       (Unspecified)
system.ruby.network.routers6.throttle04.msg_count.Writeback_Data::0         2608                       (Unspecified)
system.ruby.network.routers6.throttle04.msg_bytes.Writeback_Data::0       187776                       (Unspecified)
system.ruby.network.routers6.throttle04.msg_count.Writeback_Control::0        12577                       (Unspecified)
system.ruby.network.routers6.throttle04.msg_bytes.Writeback_Control::0       100616                       (Unspecified)
system.ruby.network.routers6.throttle05.acc_link_utilization         6305                       # Accumulated link utilization system.ruby.network.int_links11 (Count)
system.ruby.network.routers6.throttle05.link_utilization     0.006993                       # Average link utilization (Ratio)
system.ruby.network.routers6.throttle05.total_msg_count        12610                       # Total number of messages forwarded by this switch (Count)
system.ruby.network.routers6.throttle05.total_msg_bytes       100880                       # Total number of bytes forwarded by this switch (Byte)
system.ruby.network.routers6.throttle05.total_data_msg_bytes            0                       # Total number of data bytes forwarded by this switch (Byte)
system.ruby.network.routers6.throttle05.total_msg_wait_time            0                       # Total time spend forwarding messages (Tick)
system.ruby.network.routers6.throttle05.total_stall_cy            0                       # Total time spent blocked on any output link (Cycle)
system.ruby.network.routers6.throttle05.total_bw_sat_cy            0                       # Total time bandwidth was saturated on any output link (Cycle)
system.ruby.network.routers6.throttle05.avg_msg_wait_time            0                       # Average time a message took to be forwarded (Ratio)
system.ruby.network.routers6.throttle05.avg_bandwidth         0.00                       # Average bandwidth (GB/s) (Ratio)
system.ruby.network.routers6.throttle05.avg_useful_bandwidth         0.00                       # Average useful (only data) bandwidth (GB/s) (Ratio)
system.ruby.network.routers6.throttle05.msg_count.Control::0        12610                       (Unspecified)
system.ruby.network.routers6.throttle05.msg_bytes.Control::0       100880                       (Unspecified)
system.ruby.power_state.pwrStateResidencyTicks::UNDEFINED  45078751000                       # Cumulative time (in ticks) in various power states (Tick)
system.sys_port_proxy.power_state.pwrStateResidencyTicks::UNDEFINED  45078751000                       # Cumulative time (in ticks) in various power states (Tick)
system.voltage_domain.voltage                       1                       # Voltage in Volts (Volt)
system.workload.inst.arm                            0                       # number of arm instructions executed (Count)
system.workload.inst.quiesce                        0                       # number of quiesce instructions executed (Count)

---------- End Simulation Statistics   ----------
