
---------- Begin Simulation Statistics ----------
simSeconds                                   0.045769                       # Number of seconds simulated (Second)
simTicks                                  45769020500                       # Number of ticks simulated (Tick)
finalTick                                 45769020500                       # Number of ticks from beginning of simulation (restored from checkpoints and never reset) (Tick)
simFreq                                  1000000000000                       # The number of ticks per simulated second ((Tick/Second))
hostSeconds                                    485.99                       # Real time elapsed on the host (Second)
hostTickRate                                 94177070                       # The number of ticks simulated per host second (ticks/s) ((Tick/Second))
hostMemory                                     843784                       # Number of bytes of host memory used (Byte)
simInsts                                     14835554                       # Number of instructions simulated (Count)
simOps                                       52933348                       # Number of ops (including micro ops) simulated (Count)
hostInstRate                                    30527                       # Simulator instruction rate (inst/s) ((Count/Second))
hostOpRate                                     108919                       # Simulator op (including micro ops) rate (op/s) ((Count/Second))
system.clk_domain.clock                          1000                       # Clock period in ticks (Tick)
system.cpu0.numCycles                        91538042                       # Number of cpu cycles simulated (Cycle)
system.cpu0.cpi                             17.418117                       # CPI: cycles per instruction (core level) ((Cycle/Count))
system.cpu0.ipc                              0.057411                       # IPC: instructions per cycle (core level) ((Count/Cycle))
system.cpu0.numWorkItemsStarted                     0                       # Number of work items this cpu started (Count)
system.cpu0.numWorkItemsCompleted                   0                       # Number of work items this cpu completed (Count)
system.cpu0.instsAdded                       13618829                       # Number of instructions added to the IQ (excludes non-spec) (Count)
system.cpu0.nonSpecInstsAdded                 3001699                       # Number of non-speculative instructions added to the IQ (Count)
system.cpu0.instsIssued                      16413403                       # Number of instructions issued (Count)
system.cpu0.squashedInstsIssued                  2631                       # Number of squashed instructions issued (Count)
system.cpu0.squashedInstsExamined              698732                       # Number of squashed instructions iterated over during squash; mainly for profiling (Count)
system.cpu0.squashedOperandsExamined          1154278                       # Number of squashed operands that are examined and possibly removed from graph (Count)
system.cpu0.squashedNonSpecRemoved                346                       # Number of squashed non-spec instructions that were removed (Count)
system.cpu0.numIssuedDist::samples           91378786                       # Number of insts issued each cycle (Count)
system.cpu0.numIssuedDist::mean              0.179619                       # Number of insts issued each cycle (Count)
system.cpu0.numIssuedDist::stdev             0.639686                       # Number of insts issued each cycle (Count)
system.cpu0.numIssuedDist::underflows               0      0.00%      0.00% # Number of insts issued each cycle (Count)
system.cpu0.numIssuedDist::0                 81209400     88.87%     88.87% # Number of insts issued each cycle (Count)
system.cpu0.numIssuedDist::1                  6674469      7.30%     96.18% # Number of insts issued each cycle (Count)
system.cpu0.numIssuedDist::2                  2196522      2.40%     98.58% # Number of insts issued each cycle (Count)
system.cpu0.numIssuedDist::3                   709965      0.78%     99.36% # Number of insts issued each cycle (Count)
system.cpu0.numIssuedDist::4                   162965      0.18%     99.53% # Number of insts issued each cycle (Count)
system.cpu0.numIssuedDist::5                   161785      0.18%     99.71% # Number of insts issued each cycle (Count)
system.cpu0.numIssuedDist::6                   137892      0.15%     99.86% # Number of insts issued each cycle (Count)
system.cpu0.numIssuedDist::7                    78446      0.09%     99.95% # Number of insts issued each cycle (Count)
system.cpu0.numIssuedDist::8                    47342      0.05%    100.00% # Number of insts issued each cycle (Count)
system.cpu0.numIssuedDist::overflows                0      0.00%    100.00% # Number of insts issued each cycle (Count)
system.cpu0.numIssuedDist::min_value                0                       # Number of insts issued each cycle (Count)
system.cpu0.numIssuedDist::max_value                8                       # Number of insts issued each cycle (Count)
system.cpu0.numIssuedDist::total             91378786                       # Number of insts issued each cycle (Count)
system.cpu0.statFuBusy::No_OpClass                  0      0.00%      0.00% # attempts to use FU when none available (Count)
system.cpu0.statFuBusy::IntAlu                  64322     72.83%     72.83% # attempts to use FU when none available (Count)
system.cpu0.statFuBusy::IntMult                     0      0.00%     72.83% # attempts to use FU when none available (Count)
system.cpu0.statFuBusy::IntDiv                      0      0.00%     72.83% # attempts to use FU when none available (Count)
system.cpu0.statFuBusy::FloatAdd                    0      0.00%     72.83% # attempts to use FU when none available (Count)
system.cpu0.statFuBusy::FloatCmp                    0      0.00%     72.83% # attempts to use FU when none available (Count)
system.cpu0.statFuBusy::FloatCvt                    0      0.00%     72.83% # attempts to use FU when none available (Count)
system.cpu0.statFuBusy::FloatMult                   0      0.00%     72.83% # attempts to use FU when none available (Count)
system.cpu0.statFuBusy::FloatMultAcc                0      0.00%     72.83% # attempts to use FU when none available (Count)
system.cpu0.statFuBusy::FloatDiv                    0      0.00%     72.83% # attempts to use FU when none available (Count)
system.cpu0.statFuBusy::FloatMisc                   0      0.00%     72.83% # attempts to use FU when none available (Count)
system.cpu0.statFuBusy::FloatSqrt                   0      0.00%     72.83% # attempts to use FU when none available (Count)
system.cpu0.statFuBusy::SimdAdd                     0      0.00%     72.83% # attempts to use FU when none available (Count)
system.cpu0.statFuBusy::SimdAddAcc                  0      0.00%     72.83% # attempts to use FU when none available (Count)
system.cpu0.statFuBusy::SimdAlu                   142      0.16%     72.99% # attempts to use FU when none available (Count)
system.cpu0.statFuBusy::SimdCmp                     0      0.00%     72.99% # attempts to use FU when none available (Count)
system.cpu0.statFuBusy::SimdCvt                    96      0.11%     73.10% # attempts to use FU when none available (Count)
system.cpu0.statFuBusy::SimdMisc                    4      0.00%     73.10% # attempts to use FU when none available (Count)
system.cpu0.statFuBusy::SimdMult                    0      0.00%     73.10% # attempts to use FU when none available (Count)
system.cpu0.statFuBusy::SimdMultAcc                 0      0.00%     73.10% # attempts to use FU when none available (Count)
system.cpu0.statFuBusy::SimdMatMultAcc              0      0.00%     73.10% # attempts to use FU when none available (Count)
system.cpu0.statFuBusy::SimdShift                 153      0.17%     73.28% # attempts to use FU when none available (Count)
system.cpu0.statFuBusy::SimdShiftAcc                0      0.00%     73.28% # attempts to use FU when none available (Count)
system.cpu0.statFuBusy::SimdDiv                     0      0.00%     73.28% # attempts to use FU when none available (Count)
system.cpu0.statFuBusy::SimdSqrt                    0      0.00%     73.28% # attempts to use FU when none available (Count)
system.cpu0.statFuBusy::SimdFloatAdd                0      0.00%     73.28% # attempts to use FU when none available (Count)
system.cpu0.statFuBusy::SimdFloatAlu                0      0.00%     73.28% # attempts to use FU when none available (Count)
system.cpu0.statFuBusy::SimdFloatCmp                0      0.00%     73.28% # attempts to use FU when none available (Count)
system.cpu0.statFuBusy::SimdFloatCvt                0      0.00%     73.28% # attempts to use FU when none available (Count)
system.cpu0.statFuBusy::SimdFloatDiv                0      0.00%     73.28% # attempts to use FU when none available (Count)
system.cpu0.statFuBusy::SimdFloatMisc               0      0.00%     73.28% # attempts to use FU when none available (Count)
system.cpu0.statFuBusy::SimdFloatMult               0      0.00%     73.28% # attempts to use FU when none available (Count)
system.cpu0.statFuBusy::SimdFloatMultAcc            0      0.00%     73.28% # attempts to use FU when none available (Count)
system.cpu0.statFuBusy::SimdFloatMatMultAcc            0      0.00%     73.28% # attempts to use FU when none available (Count)
system.cpu0.statFuBusy::SimdFloatSqrt               0      0.00%     73.28% # attempts to use FU when none available (Count)
system.cpu0.statFuBusy::SimdReduceAdd               0      0.00%     73.28% # attempts to use FU when none available (Count)
system.cpu0.statFuBusy::SimdReduceAlu               0      0.00%     73.28% # attempts to use FU when none available (Count)
system.cpu0.statFuBusy::SimdReduceCmp               0      0.00%     73.28% # attempts to use FU when none available (Count)
system.cpu0.statFuBusy::SimdFloatReduceAdd            0      0.00%     73.28% # attempts to use FU when none available (Count)
system.cpu0.statFuBusy::SimdFloatReduceCmp            0      0.00%     73.28% # attempts to use FU when none available (Count)
system.cpu0.statFuBusy::SimdAes                     0      0.00%     73.28% # attempts to use FU when none available (Count)
system.cpu0.statFuBusy::SimdAesMix                  0      0.00%     73.28% # attempts to use FU when none available (Count)
system.cpu0.statFuBusy::SimdSha1Hash                0      0.00%     73.28% # attempts to use FU when none available (Count)
system.cpu0.statFuBusy::SimdSha1Hash2               0      0.00%     73.28% # attempts to use FU when none available (Count)
system.cpu0.statFuBusy::SimdSha256Hash              0      0.00%     73.28% # attempts to use FU when none available (Count)
system.cpu0.statFuBusy::SimdSha256Hash2             0      0.00%     73.28% # attempts to use FU when none available (Count)
system.cpu0.statFuBusy::SimdShaSigma2               0      0.00%     73.28% # attempts to use FU when none available (Count)
system.cpu0.statFuBusy::SimdShaSigma3               0      0.00%     73.28% # attempts to use FU when none available (Count)
system.cpu0.statFuBusy::SimdSha3                    0      0.00%     73.28% # attempts to use FU when none available (Count)
system.cpu0.statFuBusy::SimdSm4e                    0      0.00%     73.28% # attempts to use FU when none available (Count)
system.cpu0.statFuBusy::SimdCrc                     0      0.00%     73.28% # attempts to use FU when none available (Count)
system.cpu0.statFuBusy::SimdPredAlu                 0      0.00%     73.28% # attempts to use FU when none available (Count)
system.cpu0.statFuBusy::SimdDotProd                 0      0.00%     73.28% # attempts to use FU when none available (Count)
system.cpu0.statFuBusy::Matrix                      0      0.00%     73.28% # attempts to use FU when none available (Count)
system.cpu0.statFuBusy::MatrixMov                   0      0.00%     73.28% # attempts to use FU when none available (Count)
system.cpu0.statFuBusy::MatrixOP                    0      0.00%     73.28% # attempts to use FU when none available (Count)
system.cpu0.statFuBusy::MemRead                 12936     14.65%     87.92% # attempts to use FU when none available (Count)
system.cpu0.statFuBusy::MemWrite                 9622     10.89%     98.82% # attempts to use FU when none available (Count)
system.cpu0.statFuBusy::FloatMemRead              677      0.77%     99.58% # attempts to use FU when none available (Count)
system.cpu0.statFuBusy::FloatMemWrite             367      0.42%    100.00% # attempts to use FU when none available (Count)
system.cpu0.statFuBusy::InstPrefetch                0      0.00%    100.00% # attempts to use FU when none available (Count)
system.cpu0.statFuBusy::SimdUnitStrideLoad            0      0.00%    100.00% # attempts to use FU when none available (Count)
system.cpu0.statFuBusy::SimdUnitStrideStore            0      0.00%    100.00% # attempts to use FU when none available (Count)
system.cpu0.statFuBusy::SimdUnitStrideMaskLoad            0      0.00%    100.00% # attempts to use FU when none available (Count)
system.cpu0.statFuBusy::SimdUnitStrideMaskStore            0      0.00%    100.00% # attempts to use FU when none available (Count)
system.cpu0.statFuBusy::SimdStridedLoad             0      0.00%    100.00% # attempts to use FU when none available (Count)
system.cpu0.statFuBusy::SimdStridedStore            0      0.00%    100.00% # attempts to use FU when none available (Count)
system.cpu0.statFuBusy::SimdIndexedLoad             0      0.00%    100.00% # attempts to use FU when none available (Count)
system.cpu0.statFuBusy::SimdIndexedStore            0      0.00%    100.00% # attempts to use FU when none available (Count)
system.cpu0.statFuBusy::SimdWholeRegisterLoad            0      0.00%    100.00% # attempts to use FU when none available (Count)
system.cpu0.statFuBusy::SimdWholeRegisterStore            0      0.00%    100.00% # attempts to use FU when none available (Count)
system.cpu0.statFuBusy::SimdUnitStrideFaultOnlyFirstLoad            0      0.00%    100.00% # attempts to use FU when none available (Count)
system.cpu0.statFuBusy::SimdUnitStrideSegmentedLoad            0      0.00%    100.00% # attempts to use FU when none available (Count)
system.cpu0.statFuBusy::SimdUnitStrideSegmentedStore            0      0.00%    100.00% # attempts to use FU when none available (Count)
system.cpu0.statFuBusy::SimdUnitStrideSegmentedFaultOnlyFirstLoad            0      0.00%    100.00% # attempts to use FU when none available (Count)
system.cpu0.statFuBusy::SimdStrideSegmentedLoad            0      0.00%    100.00% # attempts to use FU when none available (Count)
system.cpu0.statFuBusy::SimdStrideSegmentedStore            0      0.00%    100.00% # attempts to use FU when none available (Count)
system.cpu0.statFuBusy::SimdExt                     0      0.00%    100.00% # attempts to use FU when none available (Count)
system.cpu0.statFuBusy::SimdFloatExt                0      0.00%    100.00% # attempts to use FU when none available (Count)
system.cpu0.statFuBusy::SimdConfig                  0      0.00%    100.00% # attempts to use FU when none available (Count)
system.cpu0.statFuBusy::SimdBf16Add                 0      0.00%    100.00% # attempts to use FU when none available (Count)
system.cpu0.statFuBusy::SimdBf16Cmp                 0      0.00%    100.00% # attempts to use FU when none available (Count)
system.cpu0.statFuBusy::SimdBf16Cvt                 0      0.00%    100.00% # attempts to use FU when none available (Count)
system.cpu0.statFuBusy::SimdBf16DotProd             0      0.00%    100.00% # attempts to use FU when none available (Count)
system.cpu0.statFuBusy::SimdBf16MatMultAcc            0      0.00%    100.00% # attempts to use FU when none available (Count)
system.cpu0.statFuBusy::SimdBf16Mult                0      0.00%    100.00% # attempts to use FU when none available (Count)
system.cpu0.statFuBusy::SimdBf16MultAcc             0      0.00%    100.00% # attempts to use FU when none available (Count)
system.cpu0.statFuBusy::Bf16Cvt                     0      0.00%    100.00% # attempts to use FU when none available (Count)
system.cpu0.statFuBusy::System                      0      0.00%    100.00% # attempts to use FU when none available (Count)
system.cpu0.issuedInstType_0::No_OpClass        24889      0.15%      0.15% # Number of instructions issued per FU type, per thread (Count)
system.cpu0.issuedInstType_0::IntAlu         13425126     81.79%     81.95% # Number of instructions issued per FU type, per thread (Count)
system.cpu0.issuedInstType_0::IntMult              62      0.00%     81.95% # Number of instructions issued per FU type, per thread (Count)
system.cpu0.issuedInstType_0::IntDiv            39693      0.24%     82.19% # Number of instructions issued per FU type, per thread (Count)
system.cpu0.issuedInstType_0::FloatAdd           8817      0.05%     82.24% # Number of instructions issued per FU type, per thread (Count)
system.cpu0.issuedInstType_0::FloatCmp              0      0.00%     82.24% # Number of instructions issued per FU type, per thread (Count)
system.cpu0.issuedInstType_0::FloatCvt           1484      0.01%     82.25% # Number of instructions issued per FU type, per thread (Count)
system.cpu0.issuedInstType_0::FloatMult             0      0.00%     82.25% # Number of instructions issued per FU type, per thread (Count)
system.cpu0.issuedInstType_0::FloatMultAcc            0      0.00%     82.25% # Number of instructions issued per FU type, per thread (Count)
system.cpu0.issuedInstType_0::FloatDiv              0      0.00%     82.25% # Number of instructions issued per FU type, per thread (Count)
system.cpu0.issuedInstType_0::FloatMisc             0      0.00%     82.25% # Number of instructions issued per FU type, per thread (Count)
system.cpu0.issuedInstType_0::FloatSqrt             0      0.00%     82.25% # Number of instructions issued per FU type, per thread (Count)
system.cpu0.issuedInstType_0::SimdAdd            6385      0.04%     82.29% # Number of instructions issued per FU type, per thread (Count)
system.cpu0.issuedInstType_0::SimdAddAcc            0      0.00%     82.29% # Number of instructions issued per FU type, per thread (Count)
system.cpu0.issuedInstType_0::SimdAlu           15845      0.10%     82.39% # Number of instructions issued per FU type, per thread (Count)
system.cpu0.issuedInstType_0::SimdCmp               0      0.00%     82.39% # Number of instructions issued per FU type, per thread (Count)
system.cpu0.issuedInstType_0::SimdCvt           14001      0.09%     82.47% # Number of instructions issued per FU type, per thread (Count)
system.cpu0.issuedInstType_0::SimdMisc          13820      0.08%     82.56% # Number of instructions issued per FU type, per thread (Count)
system.cpu0.issuedInstType_0::SimdMult              0      0.00%     82.56% # Number of instructions issued per FU type, per thread (Count)
system.cpu0.issuedInstType_0::SimdMultAcc            0      0.00%     82.56% # Number of instructions issued per FU type, per thread (Count)
system.cpu0.issuedInstType_0::SimdMatMultAcc            0      0.00%     82.56% # Number of instructions issued per FU type, per thread (Count)
system.cpu0.issuedInstType_0::SimdShift          1666      0.01%     82.57% # Number of instructions issued per FU type, per thread (Count)
system.cpu0.issuedInstType_0::SimdShiftAcc            0      0.00%     82.57% # Number of instructions issued per FU type, per thread (Count)
system.cpu0.issuedInstType_0::SimdDiv               0      0.00%     82.57% # Number of instructions issued per FU type, per thread (Count)
system.cpu0.issuedInstType_0::SimdSqrt              0      0.00%     82.57% # Number of instructions issued per FU type, per thread (Count)
system.cpu0.issuedInstType_0::SimdFloatAdd            0      0.00%     82.57% # Number of instructions issued per FU type, per thread (Count)
system.cpu0.issuedInstType_0::SimdFloatAlu            0      0.00%     82.57% # Number of instructions issued per FU type, per thread (Count)
system.cpu0.issuedInstType_0::SimdFloatCmp            0      0.00%     82.57% # Number of instructions issued per FU type, per thread (Count)
system.cpu0.issuedInstType_0::SimdFloatCvt            0      0.00%     82.57% # Number of instructions issued per FU type, per thread (Count)
system.cpu0.issuedInstType_0::SimdFloatDiv            0      0.00%     82.57% # Number of instructions issued per FU type, per thread (Count)
system.cpu0.issuedInstType_0::SimdFloatMisc            0      0.00%     82.57% # Number of instructions issued per FU type, per thread (Count)
system.cpu0.issuedInstType_0::SimdFloatMult            0      0.00%     82.57% # Number of instructions issued per FU type, per thread (Count)
system.cpu0.issuedInstType_0::SimdFloatMultAcc            0      0.00%     82.57% # Number of instructions issued per FU type, per thread (Count)
system.cpu0.issuedInstType_0::SimdFloatMatMultAcc            0      0.00%     82.57% # Number of instructions issued per FU type, per thread (Count)
system.cpu0.issuedInstType_0::SimdFloatSqrt            0      0.00%     82.57% # Number of instructions issued per FU type, per thread (Count)
system.cpu0.issuedInstType_0::SimdReduceAdd            0      0.00%     82.57% # Number of instructions issued per FU type, per thread (Count)
system.cpu0.issuedInstType_0::SimdReduceAlu            0      0.00%     82.57% # Number of instructions issued per FU type, per thread (Count)
system.cpu0.issuedInstType_0::SimdReduceCmp            0      0.00%     82.57% # Number of instructions issued per FU type, per thread (Count)
system.cpu0.issuedInstType_0::SimdFloatReduceAdd            0      0.00%     82.57% # Number of instructions issued per FU type, per thread (Count)
system.cpu0.issuedInstType_0::SimdFloatReduceCmp            0      0.00%     82.57% # Number of instructions issued per FU type, per thread (Count)
system.cpu0.issuedInstType_0::SimdAes               0      0.00%     82.57% # Number of instructions issued per FU type, per thread (Count)
system.cpu0.issuedInstType_0::SimdAesMix            0      0.00%     82.57% # Number of instructions issued per FU type, per thread (Count)
system.cpu0.issuedInstType_0::SimdSha1Hash            0      0.00%     82.57% # Number of instructions issued per FU type, per thread (Count)
system.cpu0.issuedInstType_0::SimdSha1Hash2            0      0.00%     82.57% # Number of instructions issued per FU type, per thread (Count)
system.cpu0.issuedInstType_0::SimdSha256Hash            0      0.00%     82.57% # Number of instructions issued per FU type, per thread (Count)
system.cpu0.issuedInstType_0::SimdSha256Hash2            0      0.00%     82.57% # Number of instructions issued per FU type, per thread (Count)
system.cpu0.issuedInstType_0::SimdShaSigma2            0      0.00%     82.57% # Number of instructions issued per FU type, per thread (Count)
system.cpu0.issuedInstType_0::SimdShaSigma3            0      0.00%     82.57% # Number of instructions issued per FU type, per thread (Count)
system.cpu0.issuedInstType_0::SimdSha3              0      0.00%     82.57% # Number of instructions issued per FU type, per thread (Count)
system.cpu0.issuedInstType_0::SimdSm4e              0      0.00%     82.57% # Number of instructions issued per FU type, per thread (Count)
system.cpu0.issuedInstType_0::SimdCrc               0      0.00%     82.57% # Number of instructions issued per FU type, per thread (Count)
system.cpu0.issuedInstType_0::SimdPredAlu            0      0.00%     82.57% # Number of instructions issued per FU type, per thread (Count)
system.cpu0.issuedInstType_0::SimdDotProd            0      0.00%     82.57% # Number of instructions issued per FU type, per thread (Count)
system.cpu0.issuedInstType_0::Matrix                0      0.00%     82.57% # Number of instructions issued per FU type, per thread (Count)
system.cpu0.issuedInstType_0::MatrixMov             0      0.00%     82.57% # Number of instructions issued per FU type, per thread (Count)
system.cpu0.issuedInstType_0::MatrixOP              0      0.00%     82.57% # Number of instructions issued per FU type, per thread (Count)
system.cpu0.issuedInstType_0::MemRead         1588825      9.68%     92.25% # Number of instructions issued per FU type, per thread (Count)
system.cpu0.issuedInstType_0::MemWrite        1233522      7.52%     99.76% # Number of instructions issued per FU type, per thread (Count)
system.cpu0.issuedInstType_0::FloatMemRead        23379      0.14%     99.90% # Number of instructions issued per FU type, per thread (Count)
system.cpu0.issuedInstType_0::FloatMemWrite        15889      0.10%    100.00% # Number of instructions issued per FU type, per thread (Count)
system.cpu0.issuedInstType_0::InstPrefetch            0      0.00%    100.00% # Number of instructions issued per FU type, per thread (Count)
system.cpu0.issuedInstType_0::SimdUnitStrideLoad            0      0.00%    100.00% # Number of instructions issued per FU type, per thread (Count)
system.cpu0.issuedInstType_0::SimdUnitStrideStore            0      0.00%    100.00% # Number of instructions issued per FU type, per thread (Count)
system.cpu0.issuedInstType_0::SimdUnitStrideMaskLoad            0      0.00%    100.00% # Number of instructions issued per FU type, per thread (Count)
system.cpu0.issuedInstType_0::SimdUnitStrideMaskStore            0      0.00%    100.00% # Number of instructions issued per FU type, per thread (Count)
system.cpu0.issuedInstType_0::SimdStridedLoad            0      0.00%    100.00% # Number of instructions issued per FU type, per thread (Count)
system.cpu0.issuedInstType_0::SimdStridedStore            0      0.00%    100.00% # Number of instructions issued per FU type, per thread (Count)
system.cpu0.issuedInstType_0::SimdIndexedLoad            0      0.00%    100.00% # Number of instructions issued per FU type, per thread (Count)
system.cpu0.issuedInstType_0::SimdIndexedStore            0      0.00%    100.00% # Number of instructions issued per FU type, per thread (Count)
system.cpu0.issuedInstType_0::SimdWholeRegisterLoad            0      0.00%    100.00% # Number of instructions issued per FU type, per thread (Count)
system.cpu0.issuedInstType_0::SimdWholeRegisterStore            0      0.00%    100.00% # Number of instructions issued per FU type, per thread (Count)
system.cpu0.issuedInstType_0::SimdUnitStrideFaultOnlyFirstLoad            0      0.00%    100.00% # Number of instructions issued per FU type, per thread (Count)
system.cpu0.issuedInstType_0::SimdUnitStrideSegmentedLoad            0      0.00%    100.00% # Number of instructions issued per FU type, per thread (Count)
system.cpu0.issuedInstType_0::SimdUnitStrideSegmentedStore            0      0.00%    100.00% # Number of instructions issued per FU type, per thread (Count)
system.cpu0.issuedInstType_0::SimdUnitStrideSegmentedFaultOnlyFirstLoad            0      0.00%    100.00% # Number of instructions issued per FU type, per thread (Count)
system.cpu0.issuedInstType_0::SimdStrideSegmentedLoad            0      0.00%    100.00% # Number of instructions issued per FU type, per thread (Count)
system.cpu0.issuedInstType_0::SimdStrideSegmentedStore            0      0.00%    100.00% # Number of instructions issued per FU type, per thread (Count)
system.cpu0.issuedInstType_0::SimdExt               0      0.00%    100.00% # Number of instructions issued per FU type, per thread (Count)
system.cpu0.issuedInstType_0::SimdFloatExt            0      0.00%    100.00% # Number of instructions issued per FU type, per thread (Count)
system.cpu0.issuedInstType_0::SimdConfig            0      0.00%    100.00% # Number of instructions issued per FU type, per thread (Count)
system.cpu0.issuedInstType_0::SimdBf16Add            0      0.00%    100.00% # Number of instructions issued per FU type, per thread (Count)
system.cpu0.issuedInstType_0::SimdBf16Cmp            0      0.00%    100.00% # Number of instructions issued per FU type, per thread (Count)
system.cpu0.issuedInstType_0::SimdBf16Cvt            0      0.00%    100.00% # Number of instructions issued per FU type, per thread (Count)
system.cpu0.issuedInstType_0::SimdBf16DotProd            0      0.00%    100.00% # Number of instructions issued per FU type, per thread (Count)
system.cpu0.issuedInstType_0::SimdBf16MatMultAcc            0      0.00%    100.00% # Number of instructions issued per FU type, per thread (Count)
system.cpu0.issuedInstType_0::SimdBf16Mult            0      0.00%    100.00% # Number of instructions issued per FU type, per thread (Count)
system.cpu0.issuedInstType_0::SimdBf16MultAcc            0      0.00%    100.00% # Number of instructions issued per FU type, per thread (Count)
system.cpu0.issuedInstType_0::Bf16Cvt               0      0.00%    100.00% # Number of instructions issued per FU type, per thread (Count)
system.cpu0.issuedInstType_0::System                0      0.00%    100.00% # Number of instructions issued per FU type, per thread (Count)
system.cpu0.issuedInstType_0::total          16413403                       # Number of instructions issued per FU type, per thread (Count)
system.cpu0.issueRate                        0.179307                       # Inst issue rate ((Count/Cycle))
system.cpu0.fuBusy                              88319                       # FU busy when requested (Count)
system.cpu0.fuBusyRate                       0.005381                       # FU busy rate (busy events/executed inst) ((Count/Count))
system.cpu0.intInstQueueReads               124085116                       # Number of integer instruction queue reads (Count)
system.cpu0.intInstQueueWrites               17165510                       # Number of integer instruction queue writes (Count)
system.cpu0.intInstQueueWakeupAccesses       16249293                       # Number of integer instruction queue wakeup accesses (Count)
system.cpu0.fpInstQueueReads                   211426                       # Number of floating instruction queue reads (Count)
system.cpu0.fpInstQueueWrites                  153903                       # Number of floating instruction queue writes (Count)
system.cpu0.fpInstQueueWakeupAccesses           99141                       # Number of floating instruction queue wakeup accesses (Count)
system.cpu0.vecInstQueueReads                       0                       # Number of vector instruction queue reads (Count)
system.cpu0.vecInstQueueWrites                      0                       # Number of vector instruction queue writes (Count)
system.cpu0.vecInstQueueWakeupAccesses              0                       # Number of vector instruction queue wakeup accesses (Count)
system.cpu0.intAluAccesses                   16370501                       # Number of integer alu accesses (Count)
system.cpu0.fpAluAccesses                      106332                       # Number of floating point alu accesses (Count)
system.cpu0.vecAluAccesses                          0                       # Number of vector alu accesses (Count)
system.cpu0.numRecvResp                       2753174                       # Number of received responses (Count)
system.cpu0.numRecvRespBytes                 12419787                       # Number of received response bytes (Byte)
system.cpu0.recvRespAvgBW                        0.14                       # Average bandwidth of received responses ((Byte/Cycle))
system.cpu0.recvRespAvgSize                      4.51                       # Average packet size per received response ((Byte/Count))
system.cpu0.recvRespAvgRate                      0.03                       # Average rate of received responses per cycle ((Count/Cycle))
system.cpu0.recvRespAvgRetryRate                 0.00                       # Average retry rate per received response ((Count/Count))
system.cpu0.numSendRetryResp                        0                       # Number of retry responses sent (Count)
system.cpu0.numSquashedInsts                    43250                       # Number of squashed instructions skipped in execute (Count)
system.cpu0.numSwp                                  0                       # Number of swp insts executed (Count)
system.cpu0.timesIdled                           2286                       # Number of times that the entire CPU went into an idle state and unscheduled itself (Count)
system.cpu0.idleCycles                         159256                       # Total number of cycles that the CPU has spent unscheduled due to idling (Cycle)
system.cpu0.MemDepUnit__0.insertedLoads       1631650                       # Number of loads inserted to the mem dependence unit. (Count)
system.cpu0.MemDepUnit__0.insertedStores      1259571                       # Number of stores inserted to the mem dependence unit. (Count)
system.cpu0.MemDepUnit__0.conflictingLoads        18968                       # Number of conflicting loads. (Count)
system.cpu0.MemDepUnit__0.conflictingStores      1007319                       # Number of conflicting stores. (Count)
system.cpu0.MemDepUnit__1.insertedLoads             0                       # Number of loads inserted to the mem dependence unit. (Count)
system.cpu0.MemDepUnit__1.insertedStores            0                       # Number of stores inserted to the mem dependence unit. (Count)
system.cpu0.MemDepUnit__1.conflictingLoads            0                       # Number of conflicting loads. (Count)
system.cpu0.MemDepUnit__1.conflictingStores            0                       # Number of conflicting stores. (Count)
system.cpu0.MemDepUnit__2.insertedLoads             0                       # Number of loads inserted to the mem dependence unit. (Count)
system.cpu0.MemDepUnit__2.insertedStores            0                       # Number of stores inserted to the mem dependence unit. (Count)
system.cpu0.MemDepUnit__2.conflictingLoads            0                       # Number of conflicting loads. (Count)
system.cpu0.MemDepUnit__2.conflictingStores            0                       # Number of conflicting stores. (Count)
system.cpu0.MemDepUnit__3.insertedLoads             0                       # Number of loads inserted to the mem dependence unit. (Count)
system.cpu0.MemDepUnit__3.insertedStores            0                       # Number of stores inserted to the mem dependence unit. (Count)
system.cpu0.MemDepUnit__3.conflictingLoads            0                       # Number of conflicting loads. (Count)
system.cpu0.MemDepUnit__3.conflictingStores            0                       # Number of conflicting stores. (Count)
system.cpu0.bac.fetchTargets                        0                       # Number of fetch targets created  (Count)
system.cpu0.bac.branches                      1470270                       # Number of branches that BAC encountered (Count)
system.cpu0.bac.predTakenBranches             1264198                       # Number of branches that BAC predicted taken. (Count)
system.cpu0.bac.branchesNotLastuOp                  0                       # Number of branches that fetch encountered which are not the last uOp within a macrooperation. Jump to itself. (Count)
system.cpu0.bac.branchMisspredict               15571                       # Number of mispredicted branches (Count)
system.cpu0.bac.noBranchMisspredict              1284                       # Number of non-branch instructions mispredicted (Count)
system.cpu0.bac.squashBranchDecode               1381                       # Number of branches squashed from decode (Count)
system.cpu0.bac.squashBranchCommit              14190                       # Number of branches squashed from commit (Count)
system.cpu0.bac.preDecUpdate::NoBranch              0                       # Number of branches extracted from the predecoder (Count)
system.cpu0.bac.preDecUpdate::Return                0                       # Number of branches extracted from the predecoder (Count)
system.cpu0.bac.preDecUpdate::CallDirect            0                       # Number of branches extracted from the predecoder (Count)
system.cpu0.bac.preDecUpdate::CallIndirect            0                       # Number of branches extracted from the predecoder (Count)
system.cpu0.bac.preDecUpdate::DirectCond            0                       # Number of branches extracted from the predecoder (Count)
system.cpu0.bac.preDecUpdate::DirectUncond            0                       # Number of branches extracted from the predecoder (Count)
system.cpu0.bac.preDecUpdate::IndirectCond            0                       # Number of branches extracted from the predecoder (Count)
system.cpu0.bac.preDecUpdate::IndirectUncond            0                       # Number of branches extracted from the predecoder (Count)
system.cpu0.bac.preDecUpdate::total                 0                       # Number of branches extracted from the predecoder (Count)
system.cpu0.bac.noHistByType::NoBranch              0                       # Number and type of branches that were undetected by the BPU. (Count)
system.cpu0.bac.noHistByType::Return                0                       # Number and type of branches that were undetected by the BPU. (Count)
system.cpu0.bac.noHistByType::CallDirect            0                       # Number and type of branches that were undetected by the BPU. (Count)
system.cpu0.bac.noHistByType::CallIndirect            0                       # Number and type of branches that were undetected by the BPU. (Count)
system.cpu0.bac.noHistByType::DirectCond            0                       # Number and type of branches that were undetected by the BPU. (Count)
system.cpu0.bac.noHistByType::DirectUncond            0                       # Number and type of branches that were undetected by the BPU. (Count)
system.cpu0.bac.noHistByType::IndirectCond            0                       # Number and type of branches that were undetected by the BPU. (Count)
system.cpu0.bac.noHistByType::IndirectUncond            0                       # Number and type of branches that were undetected by the BPU. (Count)
system.cpu0.bac.noHistByType::total                 0                       # Number and type of branches that were undetected by the BPU. (Count)
system.cpu0.bac.typeMissmatch                       0                       # Number branches where the branch type miss match (Count)
system.cpu0.bac.multiBranchInst                     0                       # Number branches because its not the last branch. (Count)
system.cpu0.bac.ftSizeDist::samples                 0                       # Number of bytes per fetch target (Count)
system.cpu0.bac.ftSizeDist::mean                  nan                       # Number of bytes per fetch target (Count)
system.cpu0.bac.ftSizeDist::stdev                 nan                       # Number of bytes per fetch target (Count)
system.cpu0.bac.ftSizeDist::underflows              0                       # Number of bytes per fetch target (Count)
system.cpu0.bac.ftSizeDist::0-3                     0                       # Number of bytes per fetch target (Count)
system.cpu0.bac.ftSizeDist::4-7                     0                       # Number of bytes per fetch target (Count)
system.cpu0.bac.ftSizeDist::8-11                    0                       # Number of bytes per fetch target (Count)
system.cpu0.bac.ftSizeDist::12-15                   0                       # Number of bytes per fetch target (Count)
system.cpu0.bac.ftSizeDist::16-19                   0                       # Number of bytes per fetch target (Count)
system.cpu0.bac.ftSizeDist::20-23                   0                       # Number of bytes per fetch target (Count)
system.cpu0.bac.ftSizeDist::24-27                   0                       # Number of bytes per fetch target (Count)
system.cpu0.bac.ftSizeDist::28-31                   0                       # Number of bytes per fetch target (Count)
system.cpu0.bac.ftSizeDist::32                      0                       # Number of bytes per fetch target (Count)
system.cpu0.bac.ftSizeDist::overflows               0                       # Number of bytes per fetch target (Count)
system.cpu0.bac.ftSizeDist::min_value               0                       # Number of bytes per fetch target (Count)
system.cpu0.bac.ftSizeDist::max_value               0                       # Number of bytes per fetch target (Count)
system.cpu0.bac.ftSizeDist::total                   0                       # Number of bytes per fetch target (Count)
system.cpu0.bac.ftNumber::samples                   0                       # Number of fetch target inserted to the FTQ per cycle (Count)
system.cpu0.bac.ftNumber::mean                    nan                       # Number of fetch target inserted to the FTQ per cycle (Count)
system.cpu0.bac.ftNumber::stdev                   nan                       # Number of fetch target inserted to the FTQ per cycle (Count)
system.cpu0.bac.ftNumber::underflows                0                       # Number of fetch target inserted to the FTQ per cycle (Count)
system.cpu0.bac.ftNumber::0                         0                       # Number of fetch target inserted to the FTQ per cycle (Count)
system.cpu0.bac.ftNumber::1                         0                       # Number of fetch target inserted to the FTQ per cycle (Count)
system.cpu0.bac.ftNumber::2                         0                       # Number of fetch target inserted to the FTQ per cycle (Count)
system.cpu0.bac.ftNumber::3                         0                       # Number of fetch target inserted to the FTQ per cycle (Count)
system.cpu0.bac.ftNumber::4                         0                       # Number of fetch target inserted to the FTQ per cycle (Count)
system.cpu0.bac.ftNumber::overflows                 0                       # Number of fetch target inserted to the FTQ per cycle (Count)
system.cpu0.bac.ftNumber::min_value                 0                       # Number of fetch target inserted to the FTQ per cycle (Count)
system.cpu0.bac.ftNumber::max_value                 0                       # Number of fetch target inserted to the FTQ per cycle (Count)
system.cpu0.bac.ftNumber::total                     0                       # Number of fetch target inserted to the FTQ per cycle (Count)
system.cpu0.branchPred.lookups_0::NoBranch         3075      0.21%      0.21% # Number of BP lookups (Count)
system.cpu0.branchPred.lookups_0::Return        14743      1.00%      1.21% # Number of BP lookups (Count)
system.cpu0.branchPred.lookups_0::CallDirect        18772      1.28%      2.49% # Number of BP lookups (Count)
system.cpu0.branchPred.lookups_0::CallIndirect         1264      0.09%      2.57% # Number of BP lookups (Count)
system.cpu0.branchPred.lookups_0::DirectCond      1404131     95.50%     98.08% # Number of BP lookups (Count)
system.cpu0.branchPred.lookups_0::DirectUncond        19007      1.29%     99.37% # Number of BP lookups (Count)
system.cpu0.branchPred.lookups_0::IndirectCond            0      0.00%     99.37% # Number of BP lookups (Count)
system.cpu0.branchPred.lookups_0::IndirectUncond         9278      0.63%    100.00% # Number of BP lookups (Count)
system.cpu0.branchPred.lookups_0::total       1470270                       # Number of BP lookups (Count)
system.cpu0.branchPred.squashes_0::NoBranch         2968      2.95%      2.95% # Number of branches that got squashed (completely removed) as an earlier branch was mispredicted. (Count)
system.cpu0.branchPred.squashes_0::Return         2885      2.87%      5.82% # Number of branches that got squashed (completely removed) as an earlier branch was mispredicted. (Count)
system.cpu0.branchPred.squashes_0::CallDirect         7524      7.48%     13.29% # Number of branches that got squashed (completely removed) as an earlier branch was mispredicted. (Count)
system.cpu0.branchPred.squashes_0::CallIndirect          649      0.64%     13.94% # Number of branches that got squashed (completely removed) as an earlier branch was mispredicted. (Count)
system.cpu0.branchPred.squashes_0::DirectCond        77311     76.82%     90.76% # Number of branches that got squashed (completely removed) as an earlier branch was mispredicted. (Count)
system.cpu0.branchPred.squashes_0::DirectUncond         4936      4.90%     95.66% # Number of branches that got squashed (completely removed) as an earlier branch was mispredicted. (Count)
system.cpu0.branchPred.squashes_0::IndirectCond            0      0.00%     95.66% # Number of branches that got squashed (completely removed) as an earlier branch was mispredicted. (Count)
system.cpu0.branchPred.squashes_0::IndirectUncond         4366      4.34%    100.00% # Number of branches that got squashed (completely removed) as an earlier branch was mispredicted. (Count)
system.cpu0.branchPred.squashes_0::total       100639                       # Number of branches that got squashed (completely removed) as an earlier branch was mispredicted. (Count)
system.cpu0.branchPred.corrected_0::NoBranch          227      1.46%      1.46% # Number of branches that got corrected but not yet commited. Branches get corrected by decode or after execute. Also a branch misprediction can be detected out-of-order. Therefore, a corrected branch might not end up beeing committed in case an even earlier branch was mispredicted (Count)
system.cpu0.branchPred.corrected_0::Return           16      0.10%      1.56% # Number of branches that got corrected but not yet commited. Branches get corrected by decode or after execute. Also a branch misprediction can be detected out-of-order. Therefore, a corrected branch might not end up beeing committed in case an even earlier branch was mispredicted (Count)
system.cpu0.branchPred.corrected_0::CallDirect          713      4.58%      6.14% # Number of branches that got corrected but not yet commited. Branches get corrected by decode or after execute. Also a branch misprediction can be detected out-of-order. Therefore, a corrected branch might not end up beeing committed in case an even earlier branch was mispredicted (Count)
system.cpu0.branchPred.corrected_0::CallIndirect          274      1.76%      7.90% # Number of branches that got corrected but not yet commited. Branches get corrected by decode or after execute. Also a branch misprediction can be detected out-of-order. Therefore, a corrected branch might not end up beeing committed in case an even earlier branch was mispredicted (Count)
system.cpu0.branchPred.corrected_0::DirectCond        12845     82.49%     90.39% # Number of branches that got corrected but not yet commited. Branches get corrected by decode or after execute. Also a branch misprediction can be detected out-of-order. Therefore, a corrected branch might not end up beeing committed in case an even earlier branch was mispredicted (Count)
system.cpu0.branchPred.corrected_0::DirectUncond          563      3.62%     94.01% # Number of branches that got corrected but not yet commited. Branches get corrected by decode or after execute. Also a branch misprediction can be detected out-of-order. Therefore, a corrected branch might not end up beeing committed in case an even earlier branch was mispredicted (Count)
system.cpu0.branchPred.corrected_0::IndirectCond            0      0.00%     94.01% # Number of branches that got corrected but not yet commited. Branches get corrected by decode or after execute. Also a branch misprediction can be detected out-of-order. Therefore, a corrected branch might not end up beeing committed in case an even earlier branch was mispredicted (Count)
system.cpu0.branchPred.corrected_0::IndirectUncond          933      5.99%    100.00% # Number of branches that got corrected but not yet commited. Branches get corrected by decode or after execute. Also a branch misprediction can be detected out-of-order. Therefore, a corrected branch might not end up beeing committed in case an even earlier branch was mispredicted (Count)
system.cpu0.branchPred.corrected_0::total        15571                       # Number of branches that got corrected but not yet commited. Branches get corrected by decode or after execute. Also a branch misprediction can be detected out-of-order. Therefore, a corrected branch might not end up beeing committed in case an even earlier branch was mispredicted (Count)
system.cpu0.branchPred.earlyResteers_0::NoBranch            0      0.00%      0.00% # Number of branches that got redirected after decode. (Count)
system.cpu0.branchPred.earlyResteers_0::Return            0      0.00%      0.00% # Number of branches that got redirected after decode. (Count)
system.cpu0.branchPred.earlyResteers_0::CallDirect          713     51.63%     51.63% # Number of branches that got redirected after decode. (Count)
system.cpu0.branchPred.earlyResteers_0::CallIndirect            0      0.00%     51.63% # Number of branches that got redirected after decode. (Count)
system.cpu0.branchPred.earlyResteers_0::DirectCond          105      7.60%     59.23% # Number of branches that got redirected after decode. (Count)
system.cpu0.branchPred.earlyResteers_0::DirectUncond          563     40.77%    100.00% # Number of branches that got redirected after decode. (Count)
system.cpu0.branchPred.earlyResteers_0::IndirectCond            0      0.00%    100.00% # Number of branches that got redirected after decode. (Count)
system.cpu0.branchPred.earlyResteers_0::IndirectUncond            0      0.00%    100.00% # Number of branches that got redirected after decode. (Count)
system.cpu0.branchPred.earlyResteers_0::total         1381                       # Number of branches that got redirected after decode. (Count)
system.cpu0.branchPred.committed_0::NoBranch          107      0.01%      0.01% # Number of branches finally committed  (Count)
system.cpu0.branchPred.committed_0::Return        11858      0.87%      0.87% # Number of branches finally committed  (Count)
system.cpu0.branchPred.committed_0::CallDirect        11248      0.82%      1.69% # Number of branches finally committed  (Count)
system.cpu0.branchPred.committed_0::CallIndirect          615      0.04%      1.74% # Number of branches finally committed  (Count)
system.cpu0.branchPred.committed_0::DirectCond      1326813     96.87%     98.61% # Number of branches finally committed  (Count)
system.cpu0.branchPred.committed_0::DirectUncond        14071      1.03%     99.64% # Number of branches finally committed  (Count)
system.cpu0.branchPred.committed_0::IndirectCond            0      0.00%     99.64% # Number of branches finally committed  (Count)
system.cpu0.branchPred.committed_0::IndirectUncond         4912      0.36%    100.00% # Number of branches finally committed  (Count)
system.cpu0.branchPred.committed_0::total      1369624                       # Number of branches finally committed  (Count)
system.cpu0.branchPred.mispredicted_0::NoBranch          107      0.83%      0.83% # Number of committed branches that were mispredicted. (Count)
system.cpu0.branchPred.mispredicted_0::Return            0      0.00%      0.83% # Number of committed branches that were mispredicted. (Count)
system.cpu0.branchPred.mispredicted_0::CallDirect          471      3.66%      4.49% # Number of committed branches that were mispredicted. (Count)
system.cpu0.branchPred.mispredicted_0::CallIndirect          249      1.93%      6.42% # Number of committed branches that were mispredicted. (Count)
system.cpu0.branchPred.mispredicted_0::DirectCond        10811     83.93%     90.35% # Number of committed branches that were mispredicted. (Count)
system.cpu0.branchPred.mispredicted_0::DirectUncond          373      2.90%     93.25% # Number of committed branches that were mispredicted. (Count)
system.cpu0.branchPred.mispredicted_0::IndirectCond            0      0.00%     93.25% # Number of committed branches that were mispredicted. (Count)
system.cpu0.branchPred.mispredicted_0::IndirectUncond          870      6.75%    100.00% # Number of committed branches that were mispredicted. (Count)
system.cpu0.branchPred.mispredicted_0::total        12881                       # Number of committed branches that were mispredicted. (Count)
system.cpu0.branchPred.mispredictDueToPredictor_0::NoBranch          107      1.08%      1.08% # Number of committed branches that were mispredicted by the predictor. (Count)
system.cpu0.branchPred.mispredictDueToPredictor_0::Return            0      0.00%      1.08% # Number of committed branches that were mispredicted by the predictor. (Count)
system.cpu0.branchPred.mispredictDueToPredictor_0::CallDirect            0      0.00%      1.08% # Number of committed branches that were mispredicted by the predictor. (Count)
system.cpu0.branchPred.mispredictDueToPredictor_0::CallIndirect            0      0.00%      1.08% # Number of committed branches that were mispredicted by the predictor. (Count)
system.cpu0.branchPred.mispredictDueToPredictor_0::DirectCond         9770     98.92%    100.00% # Number of committed branches that were mispredicted by the predictor. (Count)
system.cpu0.branchPred.mispredictDueToPredictor_0::DirectUncond            0      0.00%    100.00% # Number of committed branches that were mispredicted by the predictor. (Count)
system.cpu0.branchPred.mispredictDueToPredictor_0::IndirectCond            0      0.00%    100.00% # Number of committed branches that were mispredicted by the predictor. (Count)
system.cpu0.branchPred.mispredictDueToPredictor_0::IndirectUncond            0      0.00%    100.00% # Number of committed branches that were mispredicted by the predictor. (Count)
system.cpu0.branchPred.mispredictDueToPredictor_0::total         9877                       # Number of committed branches that were mispredicted by the predictor. (Count)
system.cpu0.branchPred.mispredictDueToBTBMiss_0::NoBranch            0      0.00%      0.00% # Number of committed branches that were mispredicted because of a BTB miss. (Count)
system.cpu0.branchPred.mispredictDueToBTBMiss_0::Return            0      0.00%      0.00% # Number of committed branches that were mispredicted because of a BTB miss. (Count)
system.cpu0.branchPred.mispredictDueToBTBMiss_0::CallDirect          471     15.68%     15.68% # Number of committed branches that were mispredicted because of a BTB miss. (Count)
system.cpu0.branchPred.mispredictDueToBTBMiss_0::CallIndirect          249      8.29%     23.97% # Number of committed branches that were mispredicted because of a BTB miss. (Count)
system.cpu0.branchPred.mispredictDueToBTBMiss_0::DirectCond         1041     34.65%     58.62% # Number of committed branches that were mispredicted because of a BTB miss. (Count)
system.cpu0.branchPred.mispredictDueToBTBMiss_0::DirectUncond          373     12.42%     71.04% # Number of committed branches that were mispredicted because of a BTB miss. (Count)
system.cpu0.branchPred.mispredictDueToBTBMiss_0::IndirectCond            0      0.00%     71.04% # Number of committed branches that were mispredicted because of a BTB miss. (Count)
system.cpu0.branchPred.mispredictDueToBTBMiss_0::IndirectUncond          870     28.96%    100.00% # Number of committed branches that were mispredicted because of a BTB miss. (Count)
system.cpu0.branchPred.mispredictDueToBTBMiss_0::total         3004                       # Number of committed branches that were mispredicted because of a BTB miss. (Count)
system.cpu0.branchPred.targetProvider_0::NoTarget       206072     14.02%     14.02% # The component providing the target for taken branches (Count)
system.cpu0.branchPred.targetProvider_0::BTB      1244481     84.64%     98.66% # The component providing the target for taken branches (Count)
system.cpu0.branchPred.targetProvider_0::RAS        14743      1.00%     99.66% # The component providing the target for taken branches (Count)
system.cpu0.branchPred.targetProvider_0::Indirect         4974      0.34%    100.00% # The component providing the target for taken branches (Count)
system.cpu0.branchPred.targetProvider_0::total      1470270                       # The component providing the target for taken branches (Count)
system.cpu0.branchPred.targetWrong_0::NoBranch         7879     57.33%     57.33% # Number of branches where the target was incorrect or not available at prediction time. (Count)
system.cpu0.branchPred.targetWrong_0::Return         5755     41.88%     99.21% # Number of branches where the target was incorrect or not available at prediction time. (Count)
system.cpu0.branchPred.targetWrong_0::CallDirect           16      0.12%     99.32% # Number of branches where the target was incorrect or not available at prediction time. (Count)
system.cpu0.branchPred.targetWrong_0::CallIndirect           93      0.68%    100.00% # Number of branches where the target was incorrect or not available at prediction time. (Count)
system.cpu0.branchPred.targetWrong_0::DirectCond            0      0.00%    100.00% # Number of branches where the target was incorrect or not available at prediction time. (Count)
system.cpu0.branchPred.targetWrong_0::DirectUncond            0      0.00%    100.00% # Number of branches where the target was incorrect or not available at prediction time. (Count)
system.cpu0.branchPred.targetWrong_0::IndirectCond            0      0.00%    100.00% # Number of branches where the target was incorrect or not available at prediction time. (Count)
system.cpu0.branchPred.targetWrong_0::IndirectUncond            0      0.00%    100.00% # Number of branches where the target was incorrect or not available at prediction time. (Count)
system.cpu0.branchPred.targetWrong_0::total        13743                       # Number of branches where the target was incorrect or not available at prediction time. (Count)
system.cpu0.branchPred.condPredicted          1404131                       # Number of conditional branches predicted (Count)
system.cpu0.branchPred.condPredictedTaken      1207684                       # Number of conditional branches predicted as taken (Count)
system.cpu0.branchPred.condIncorrect            12881                       # Number of conditional branches incorrect (Count)
system.cpu0.branchPred.predTakenBTBMiss          1666                       # Number of branches predicted taken but missed in BTB (Count)
system.cpu0.branchPred.BTBLookups             1470270                       # Number of BTB lookups (Count)
system.cpu0.branchPred.BTBUpdates                7913                       # Number of BTB updates (Count)
system.cpu0.branchPred.BTBHits                1324060                       # Number of BTB hits (Count)
system.cpu0.branchPred.BTBHitRatio           0.900556                       # BTB Hit Ratio (Ratio)
system.cpu0.branchPred.BTBMispredicted           2543                       # Number BTB mispredictions. No target found or target wrong (Count)
system.cpu0.branchPred.indirectLookups          10542                       # Number of indirect predictor lookups. (Count)
system.cpu0.branchPred.indirectHits              4974                       # Number of indirect target hits. (Count)
system.cpu0.branchPred.indirectMisses            5568                       # Number of indirect misses. (Count)
system.cpu0.branchPred.indirectMispredicted            0                       # Number of mispredicted indirect branches. (Count)
system.cpu0.branchPred.btb.lookups::NoBranch         3075      0.21%      0.21% # Number of BTB lookups (Count)
system.cpu0.branchPred.btb.lookups::Return        14743      1.00%      1.21% # Number of BTB lookups (Count)
system.cpu0.branchPred.btb.lookups::CallDirect        18772      1.28%      2.49% # Number of BTB lookups (Count)
system.cpu0.branchPred.btb.lookups::CallIndirect         1264      0.09%      2.57% # Number of BTB lookups (Count)
system.cpu0.branchPred.btb.lookups::DirectCond      1404131     95.50%     98.08% # Number of BTB lookups (Count)
system.cpu0.branchPred.btb.lookups::DirectUncond        19007      1.29%     99.37% # Number of BTB lookups (Count)
system.cpu0.branchPred.btb.lookups::IndirectCond            0      0.00%     99.37% # Number of BTB lookups (Count)
system.cpu0.branchPred.btb.lookups::IndirectUncond         9278      0.63%    100.00% # Number of BTB lookups (Count)
system.cpu0.branchPred.btb.lookups::total      1470270                       # Number of BTB lookups (Count)
system.cpu0.branchPred.btb.misses::NoBranch          260      0.18%      0.18% # Number of BTB misses (Count)
system.cpu0.branchPred.btb.misses::Return        14743     10.08%     10.26% # Number of BTB misses (Count)
system.cpu0.branchPred.btb.misses::CallDirect         1048      0.72%     10.98% # Number of BTB misses (Count)
system.cpu0.branchPred.btb.misses::CallIndirect         1264      0.86%     11.84% # Number of BTB misses (Count)
system.cpu0.branchPred.btb.misses::DirectCond       118832     81.27%     93.12% # Number of BTB misses (Count)
system.cpu0.branchPred.btb.misses::DirectUncond          785      0.54%     93.65% # Number of BTB misses (Count)
system.cpu0.branchPred.btb.misses::IndirectCond            0      0.00%     93.65% # Number of BTB misses (Count)
system.cpu0.branchPred.btb.misses::IndirectUncond         9278      6.35%    100.00% # Number of BTB misses (Count)
system.cpu0.branchPred.btb.misses::total       146210                       # Number of BTB misses (Count)
system.cpu0.branchPred.btb.updates::NoBranch          227      2.87%      2.87% # Number of BTB updates (Count)
system.cpu0.branchPred.btb.updates::Return            0      0.00%      2.87% # Number of BTB updates (Count)
system.cpu0.branchPred.btb.updates::CallDirect          713      9.01%     11.88% # Number of BTB updates (Count)
system.cpu0.branchPred.btb.updates::CallIndirect            0      0.00%     11.88% # Number of BTB updates (Count)
system.cpu0.branchPred.btb.updates::DirectCond         6410     81.01%     92.89% # Number of BTB updates (Count)
system.cpu0.branchPred.btb.updates::DirectUncond          563      7.11%    100.00% # Number of BTB updates (Count)
system.cpu0.branchPred.btb.updates::IndirectCond            0      0.00%    100.00% # Number of BTB updates (Count)
system.cpu0.branchPred.btb.updates::IndirectUncond            0      0.00%    100.00% # Number of BTB updates (Count)
system.cpu0.branchPred.btb.updates::total         7913                       # Number of BTB updates (Count)
system.cpu0.branchPred.btb.mispredict::NoBranch          227      2.87%      2.87% # Number of BTB mispredictions. No target found or target wrong. (Count)
system.cpu0.branchPred.btb.mispredict::Return            0      0.00%      2.87% # Number of BTB mispredictions. No target found or target wrong. (Count)
system.cpu0.branchPred.btb.mispredict::CallDirect          713      9.01%     11.88% # Number of BTB mispredictions. No target found or target wrong. (Count)
system.cpu0.branchPred.btb.mispredict::CallIndirect            0      0.00%     11.88% # Number of BTB mispredictions. No target found or target wrong. (Count)
system.cpu0.branchPred.btb.mispredict::DirectCond         6410     81.01%     92.89% # Number of BTB mispredictions. No target found or target wrong. (Count)
system.cpu0.branchPred.btb.mispredict::DirectUncond          563      7.11%    100.00% # Number of BTB mispredictions. No target found or target wrong. (Count)
system.cpu0.branchPred.btb.mispredict::IndirectCond            0      0.00%    100.00% # Number of BTB mispredictions. No target found or target wrong. (Count)
system.cpu0.branchPred.btb.mispredict::IndirectUncond            0      0.00%    100.00% # Number of BTB mispredictions. No target found or target wrong. (Count)
system.cpu0.branchPred.btb.mispredict::total         7913                       # Number of BTB mispredictions. No target found or target wrong. (Count)
system.cpu0.branchPred.btb.power_state.pwrStateResidencyTicks::UNDEFINED  45769020500                       # Cumulative time (in ticks) in various power states (Tick)
system.cpu0.branchPred.indirectBranchPred.lookups        10542                       # Number of lookups (Count)
system.cpu0.branchPred.indirectBranchPred.hits         4974                       # Number of hits of a tag (Count)
system.cpu0.branchPred.indirectBranchPred.misses         5568                       # Number of misses (Count)
system.cpu0.branchPred.indirectBranchPred.targetRecords         1207                       # Number of targets that where recorded/installed in the cache (Count)
system.cpu0.branchPred.indirectBranchPred.indirectRecords        11749                       # Number of indirect branches/calls recorded in the indirect hist (Count)
system.cpu0.branchPred.indirectBranchPred.speculativeOverflows            1                       # Number of times more than the allowed capacity for speculative branches/calls where in flight and destroy the path history (Count)
system.cpu0.branchPred.ras.pushes               22921                       # Number of times a PC was pushed onto the RAS (Count)
system.cpu0.branchPred.ras.pops                 22916                       # Number of times a PC was poped from the RAS (Count)
system.cpu0.branchPred.ras.squashes             11058                       # Number of times the stack operation was squashed due to wrong speculation. (Count)
system.cpu0.branchPred.ras.used                 11858                       # Number of times the RAS is the provider (Count)
system.cpu0.branchPred.ras.correct              11858                       # Number of times the RAS is the provider and the prediction is correct (Count)
system.cpu0.branchPred.ras.incorrect                0                       # Number of times the RAS is the provider and the prediction is wrong (Count)
system.cpu0.commit.status::running           91371463     99.99%     99.99% # Number of cycles commit is running (Cycle)
system.cpu0.commit.status::idle                     1      0.00%     99.99% # Number of cycles commit is idle (Cycle)
system.cpu0.commit.status::trapPending           7322      0.01%    100.00% # Number of cycles commit is processing a trap (Cycle)
system.cpu0.commit.commitSquashedInsts         696683                       # The number of squashed insts skipped by commit (Count)
system.cpu0.commit.commitNonSpecStalls        3001353                       # The number of times commit has been forced to stall to communicate backwards (Count)
system.cpu0.commit.branchMispredicts            14822                       # The number of times a branch was mispredicted (Count)
system.cpu0.commit.numCommittedDist::samples     91363312                       # Number of insts commited each cycle (Count)
system.cpu0.commit.numCommittedDist::mean     0.174269                       # Number of insts commited each cycle (Count)
system.cpu0.commit.numCommittedDist::stdev     0.989720                       # Number of insts commited each cycle (Count)
system.cpu0.commit.numCommittedDist::underflows            0      0.00%      0.00% # Number of insts commited each cycle (Count)
system.cpu0.commit.numCommittedDist::0       85417427     93.49%     93.49% # Number of insts commited each cycle (Count)
system.cpu0.commit.numCommittedDist::1        4281658      4.69%     98.18% # Number of insts commited each cycle (Count)
system.cpu0.commit.numCommittedDist::2          92292      0.10%     98.28% # Number of insts commited each cycle (Count)
system.cpu0.commit.numCommittedDist::3         166938      0.18%     98.46% # Number of insts commited each cycle (Count)
system.cpu0.commit.numCommittedDist::4          30313      0.03%     98.50% # Number of insts commited each cycle (Count)
system.cpu0.commit.numCommittedDist::5          14142      0.02%     98.51% # Number of insts commited each cycle (Count)
system.cpu0.commit.numCommittedDist::6          13231      0.01%     98.53% # Number of insts commited each cycle (Count)
system.cpu0.commit.numCommittedDist::7          95117      0.10%     98.63% # Number of insts commited each cycle (Count)
system.cpu0.commit.numCommittedDist::8        1252194      1.37%    100.00% # Number of insts commited each cycle (Count)
system.cpu0.commit.numCommittedDist::overflows            0      0.00%    100.00% # Number of insts commited each cycle (Count)
system.cpu0.commit.numCommittedDist::min_value            0                       # Number of insts commited each cycle (Count)
system.cpu0.commit.numCommittedDist::max_value            8                       # Number of insts commited each cycle (Count)
system.cpu0.commit.numCommittedDist::total     91363312                       # Number of insts commited each cycle (Count)
system.cpu0.commit.amos                             0                       # Number of atomic instructions committed (Count)
system.cpu0.commit.membars                    2000350                       # Number of memory barriers committed (Count)
system.cpu0.commit.committedInstType_0::No_OpClass        14651      0.09%      0.09% # Class of committed instruction (Count)
system.cpu0.commit.committedInstType_0::IntAlu     13075122     82.12%     82.21% # Class of committed instruction (Count)
system.cpu0.commit.committedInstType_0::IntMult           53      0.00%     82.21% # Class of committed instruction (Count)
system.cpu0.commit.committedInstType_0::IntDiv        36474      0.23%     82.44% # Class of committed instruction (Count)
system.cpu0.commit.committedInstType_0::FloatAdd         6857      0.04%     82.49% # Class of committed instruction (Count)
system.cpu0.commit.committedInstType_0::FloatCmp            0      0.00%     82.49% # Class of committed instruction (Count)
system.cpu0.commit.committedInstType_0::FloatCvt         1472      0.01%     82.49% # Class of committed instruction (Count)
system.cpu0.commit.committedInstType_0::FloatMult            0      0.00%     82.49% # Class of committed instruction (Count)
system.cpu0.commit.committedInstType_0::FloatMultAcc            0      0.00%     82.49% # Class of committed instruction (Count)
system.cpu0.commit.committedInstType_0::FloatDiv            0      0.00%     82.49% # Class of committed instruction (Count)
system.cpu0.commit.committedInstType_0::FloatMisc            0      0.00%     82.49% # Class of committed instruction (Count)
system.cpu0.commit.committedInstType_0::FloatSqrt            0      0.00%     82.49% # Class of committed instruction (Count)
system.cpu0.commit.committedInstType_0::SimdAdd         5888      0.04%     82.53% # Class of committed instruction (Count)
system.cpu0.commit.committedInstType_0::SimdAddAcc            0      0.00%     82.53% # Class of committed instruction (Count)
system.cpu0.commit.committedInstType_0::SimdAlu        11913      0.07%     82.61% # Class of committed instruction (Count)
system.cpu0.commit.committedInstType_0::SimdCmp            0      0.00%     82.61% # Class of committed instruction (Count)
system.cpu0.commit.committedInstType_0::SimdCvt        12364      0.08%     82.68% # Class of committed instruction (Count)
system.cpu0.commit.committedInstType_0::SimdMisc        12807      0.08%     82.76% # Class of committed instruction (Count)
system.cpu0.commit.committedInstType_0::SimdMult            0      0.00%     82.76% # Class of committed instruction (Count)
system.cpu0.commit.committedInstType_0::SimdMultAcc            0      0.00%     82.76% # Class of committed instruction (Count)
system.cpu0.commit.committedInstType_0::SimdMatMultAcc            0      0.00%     82.76% # Class of committed instruction (Count)
system.cpu0.commit.committedInstType_0::SimdShift          908      0.01%     82.77% # Class of committed instruction (Count)
system.cpu0.commit.committedInstType_0::SimdShiftAcc            0      0.00%     82.77% # Class of committed instruction (Count)
system.cpu0.commit.committedInstType_0::SimdDiv            0      0.00%     82.77% # Class of committed instruction (Count)
system.cpu0.commit.committedInstType_0::SimdSqrt            0      0.00%     82.77% # Class of committed instruction (Count)
system.cpu0.commit.committedInstType_0::SimdFloatAdd            0      0.00%     82.77% # Class of committed instruction (Count)
system.cpu0.commit.committedInstType_0::SimdFloatAlu            0      0.00%     82.77% # Class of committed instruction (Count)
system.cpu0.commit.committedInstType_0::SimdFloatCmp            0      0.00%     82.77% # Class of committed instruction (Count)
system.cpu0.commit.committedInstType_0::SimdFloatCvt            0      0.00%     82.77% # Class of committed instruction (Count)
system.cpu0.commit.committedInstType_0::SimdFloatDiv            0      0.00%     82.77% # Class of committed instruction (Count)
system.cpu0.commit.committedInstType_0::SimdFloatMisc            0      0.00%     82.77% # Class of committed instruction (Count)
system.cpu0.commit.committedInstType_0::SimdFloatMult            0      0.00%     82.77% # Class of committed instruction (Count)
system.cpu0.commit.committedInstType_0::SimdFloatMultAcc            0      0.00%     82.77% # Class of committed instruction (Count)
system.cpu0.commit.committedInstType_0::SimdFloatMatMultAcc            0      0.00%     82.77% # Class of committed instruction (Count)
system.cpu0.commit.committedInstType_0::SimdFloatSqrt            0      0.00%     82.77% # Class of committed instruction (Count)
system.cpu0.commit.committedInstType_0::SimdReduceAdd            0      0.00%     82.77% # Class of committed instruction (Count)
system.cpu0.commit.committedInstType_0::SimdReduceAlu            0      0.00%     82.77% # Class of committed instruction (Count)
system.cpu0.commit.committedInstType_0::SimdReduceCmp            0      0.00%     82.77% # Class of committed instruction (Count)
system.cpu0.commit.committedInstType_0::SimdFloatReduceAdd            0      0.00%     82.77% # Class of committed instruction (Count)
system.cpu0.commit.committedInstType_0::SimdFloatReduceCmp            0      0.00%     82.77% # Class of committed instruction (Count)
system.cpu0.commit.committedInstType_0::SimdAes            0      0.00%     82.77% # Class of committed instruction (Count)
system.cpu0.commit.committedInstType_0::SimdAesMix            0      0.00%     82.77% # Class of committed instruction (Count)
system.cpu0.commit.committedInstType_0::SimdSha1Hash            0      0.00%     82.77% # Class of committed instruction (Count)
system.cpu0.commit.committedInstType_0::SimdSha1Hash2            0      0.00%     82.77% # Class of committed instruction (Count)
system.cpu0.commit.committedInstType_0::SimdSha256Hash            0      0.00%     82.77% # Class of committed instruction (Count)
system.cpu0.commit.committedInstType_0::SimdSha256Hash2            0      0.00%     82.77% # Class of committed instruction (Count)
system.cpu0.commit.committedInstType_0::SimdShaSigma2            0      0.00%     82.77% # Class of committed instruction (Count)
system.cpu0.commit.committedInstType_0::SimdShaSigma3            0      0.00%     82.77% # Class of committed instruction (Count)
system.cpu0.commit.committedInstType_0::SimdSha3            0      0.00%     82.77% # Class of committed instruction (Count)
system.cpu0.commit.committedInstType_0::SimdSm4e            0      0.00%     82.77% # Class of committed instruction (Count)
system.cpu0.commit.committedInstType_0::SimdCrc            0      0.00%     82.77% # Class of committed instruction (Count)
system.cpu0.commit.committedInstType_0::SimdPredAlu            0      0.00%     82.77% # Class of committed instruction (Count)
system.cpu0.commit.committedInstType_0::SimdDotProd            0      0.00%     82.77% # Class of committed instruction (Count)
system.cpu0.commit.committedInstType_0::Matrix            0      0.00%     82.77% # Class of committed instruction (Count)
system.cpu0.commit.committedInstType_0::MatrixMov            0      0.00%     82.77% # Class of committed instruction (Count)
system.cpu0.commit.committedInstType_0::MatrixOP            0      0.00%     82.77% # Class of committed instruction (Count)
system.cpu0.commit.committedInstType_0::MemRead      1517585      9.53%     92.30% # Class of committed instruction (Count)
system.cpu0.commit.committedInstType_0::MemWrite      1194581      7.50%     99.80% # Class of committed instruction (Count)
system.cpu0.commit.committedInstType_0::FloatMemRead        16254      0.10%     99.91% # Class of committed instruction (Count)
system.cpu0.commit.committedInstType_0::FloatMemWrite        14846      0.09%    100.00% # Class of committed instruction (Count)
system.cpu0.commit.committedInstType_0::InstPrefetch            0      0.00%    100.00% # Class of committed instruction (Count)
system.cpu0.commit.committedInstType_0::SimdUnitStrideLoad            0      0.00%    100.00% # Class of committed instruction (Count)
system.cpu0.commit.committedInstType_0::SimdUnitStrideStore            0      0.00%    100.00% # Class of committed instruction (Count)
system.cpu0.commit.committedInstType_0::SimdUnitStrideMaskLoad            0      0.00%    100.00% # Class of committed instruction (Count)
system.cpu0.commit.committedInstType_0::SimdUnitStrideMaskStore            0      0.00%    100.00% # Class of committed instruction (Count)
system.cpu0.commit.committedInstType_0::SimdStridedLoad            0      0.00%    100.00% # Class of committed instruction (Count)
system.cpu0.commit.committedInstType_0::SimdStridedStore            0      0.00%    100.00% # Class of committed instruction (Count)
system.cpu0.commit.committedInstType_0::SimdIndexedLoad            0      0.00%    100.00% # Class of committed instruction (Count)
system.cpu0.commit.committedInstType_0::SimdIndexedStore            0      0.00%    100.00% # Class of committed instruction (Count)
system.cpu0.commit.committedInstType_0::SimdWholeRegisterLoad            0      0.00%    100.00% # Class of committed instruction (Count)
system.cpu0.commit.committedInstType_0::SimdWholeRegisterStore            0      0.00%    100.00% # Class of committed instruction (Count)
system.cpu0.commit.committedInstType_0::SimdUnitStrideFaultOnlyFirstLoad            0      0.00%    100.00% # Class of committed instruction (Count)
system.cpu0.commit.committedInstType_0::SimdUnitStrideSegmentedLoad            0      0.00%    100.00% # Class of committed instruction (Count)
system.cpu0.commit.committedInstType_0::SimdUnitStrideSegmentedStore            0      0.00%    100.00% # Class of committed instruction (Count)
system.cpu0.commit.committedInstType_0::SimdUnitStrideSegmentedFaultOnlyFirstLoad            0      0.00%    100.00% # Class of committed instruction (Count)
system.cpu0.commit.committedInstType_0::SimdStrideSegmentedLoad            0      0.00%    100.00% # Class of committed instruction (Count)
system.cpu0.commit.committedInstType_0::SimdStrideSegmentedStore            0      0.00%    100.00% # Class of committed instruction (Count)
system.cpu0.commit.committedInstType_0::SimdExt            0      0.00%    100.00% # Class of committed instruction (Count)
system.cpu0.commit.committedInstType_0::SimdFloatExt            0      0.00%    100.00% # Class of committed instruction (Count)
system.cpu0.commit.committedInstType_0::SimdConfig            0      0.00%    100.00% # Class of committed instruction (Count)
system.cpu0.commit.committedInstType_0::SimdBf16Add            0      0.00%    100.00% # Class of committed instruction (Count)
system.cpu0.commit.committedInstType_0::SimdBf16Cmp            0      0.00%    100.00% # Class of committed instruction (Count)
system.cpu0.commit.committedInstType_0::SimdBf16Cvt            0      0.00%    100.00% # Class of committed instruction (Count)
[...]
system.ruby.network.routers6.port_buffers6.m_buf_msgs     0.003643                       # Average number of messages in buffer ((Count/Tick))
system.ruby.network.routers6.port_buffers8.m_msg_count       666906                       # Number of messages passed the buffer (Count)
system.ruby.network.routers6.port_buffers8.m_buf_msgs     0.007286                       # Average number of messages in buffer ((Count/Tick))
system.ruby.network.routers6.port_buffers8.m_stall_time        32500                       # Total number of ticks messages were stalled in this buffer (Tick)
system.ruby.network.routers6.port_buffers8.m_avg_stall_time     0.048733                       # Average stall ticks per message ((Tick/Count))
system.ruby.network.routers6.port_buffers9.m_msg_count       333507                       # Number of messages passed the buffer (Count)
system.ruby.network.routers6.port_buffers9.m_buf_msgs     0.003643                       # Average number of messages in buffer ((Count/Tick))
system.ruby.network.routers6.power_state.pwrStateResidencyTicks::UNDEFINED  45769020500                       # Cumulative time (in ticks) in various power states (Tick)
system.ruby.network.routers6.throttle00.acc_link_utilization 1932797.500000                       # Accumulated link utilization system.ruby.network.int_links06 (Count)
system.ruby.network.routers6.throttle00.link_utilization     2.111469                       # Average link utilization (Ratio)
system.ruby.network.routers6.throttle00.total_msg_count      1038635                       # Total number of messages forwarded by this switch (Count)
system.ruby.network.routers6.throttle00.total_msg_bytes     30924760                       # Total number of bytes forwarded by this switch (Byte)
system.ruby.network.routers6.throttle00.total_data_msg_bytes     22615680                       # Total number of data bytes forwarded by this switch (Byte)
system.ruby.network.routers6.throttle00.total_msg_wait_time        70000                       # Total time spend forwarding messages (Tick)
system.ruby.network.routers6.throttle00.total_stall_cy            0                       # Total time spent blocked on any output link (Cycle)
system.ruby.network.routers6.throttle00.total_bw_sat_cy      1413494                       # Total time bandwidth was saturated on any output link (Cycle)
system.ruby.network.routers6.throttle00.avg_msg_wait_time     0.067396                       # Average time a message took to be forwarded (Ratio)
system.ruby.network.routers6.throttle00.avg_bandwidth         0.63                       # Average bandwidth (GB/s) (Ratio)
system.ruby.network.routers6.throttle00.avg_useful_bandwidth         0.46                       # Average useful (only data) bandwidth (GB/s) (Ratio)
system.ruby.network.routers6.throttle00.msg_count.Response_Data::2        12690                       (Unspecified)
system.ruby.network.routers6.throttle00.msg_bytes.Response_Data::2       913680                       (Unspecified)
system.ruby.network.routers6.throttle00.msg_count.ResponseL2hit_Data::2         7180                       (Unspecified)
system.ruby.network.routers6.throttle00.msg_bytes.ResponseL2hit_Data::2       516960                       (Unspecified)
system.ruby.network.routers6.throttle00.msg_count.ResponseLocal_Data::2       333500                       (Unspecified)
system.ruby.network.routers6.throttle00.msg_bytes.ResponseLocal_Data::2     24012000                       (Unspecified)
system.ruby.network.routers6.throttle00.msg_count.Response_Control::2       333378                       (Unspecified)
system.ruby.network.routers6.throttle00.msg_bytes.Response_Control::2      2667024                       (Unspecified)
system.ruby.network.routers6.throttle00.msg_count.Writeback_Control::2        18221                       (Unspecified)
system.ruby.network.routers6.throttle00.msg_bytes.Writeback_Control::2       145768                       (Unspecified)
system.ruby.network.routers6.throttle00.msg_count.Forwarded_Control::0       333662                       (Unspecified)
system.ruby.network.routers6.throttle00.msg_bytes.Forwarded_Control::0      2669296                       (Unspecified)
system.ruby.network.routers6.throttle00.msg_count.Invalidate_Control::0            4                       (Unspecified)
system.ruby.network.routers6.throttle00.msg_bytes.Invalidate_Control::0           32                       (Unspecified)
system.ruby.network.routers6.throttle01.acc_link_utilization 1834396.500000                       # Accumulated link utilization system.ruby.network.int_links07 (Count)
system.ruby.network.routers6.throttle01.link_utilization     2.003972                       # Average link utilization (Ratio)
system.ruby.network.routers6.throttle01.total_msg_count      1000337                       # Total number of messages forwarded by this switch (Count)
system.ruby.network.routers6.throttle01.total_msg_bytes     29350344                       # Total number of bytes forwarded by this switch (Byte)
system.ruby.network.routers6.throttle01.total_data_msg_bytes     21347648                       # Total number of data bytes forwarded by this switch (Byte)
system.ruby.network.routers6.throttle01.total_msg_wait_time        24500                       # Total time spend forwarding messages (Tick)
system.ruby.network.routers6.throttle01.total_stall_cy            0                       # Total time spent blocked on any output link (Cycle)
system.ruby.network.routers6.throttle01.total_bw_sat_cy      1334234                       # Total time bandwidth was saturated on any output link (Cycle)
system.ruby.network.routers6.throttle01.avg_msg_wait_time     0.024492                       # Average time a message took to be forwarded (Ratio)
system.ruby.network.routers6.throttle01.avg_bandwidth         0.60                       # Average bandwidth (GB/s) (Ratio)
system.ruby.network.routers6.throttle01.avg_useful_bandwidth         0.43                       # Average useful (only data) bandwidth (GB/s) (Ratio)
system.ruby.network.routers6.throttle01.msg_count.Response_Data::2           32                       (Unspecified)
system.ruby.network.routers6.throttle01.msg_bytes.Response_Data::2         2304                       (Unspecified)
system.ruby.network.routers6.throttle01.msg_count.ResponseL2hit_Data::2           35                       (Unspecified)
system.ruby.network.routers6.throttle01.msg_bytes.ResponseL2hit_Data::2         2520                       (Unspecified)
system.ruby.network.routers6.throttle01.msg_count.ResponseLocal_Data::2       333490                       (Unspecified)
system.ruby.network.routers6.throttle01.msg_bytes.ResponseLocal_Data::2     24011280                       (Unspecified)
system.ruby.network.routers6.throttle01.msg_count.Response_Control::2       333348                       (Unspecified)
system.ruby.network.routers6.throttle01.msg_bytes.Response_Control::2      2666784                       (Unspecified)
system.ruby.network.routers6.throttle01.msg_count.Writeback_Control::2            4                       (Unspecified)
system.ruby.network.routers6.throttle01.msg_bytes.Writeback_Control::2           32                       (Unspecified)
system.ruby.network.routers6.throttle01.msg_count.Forwarded_Control::0       333422                       (Unspecified)
system.ruby.network.routers6.throttle01.msg_bytes.Forwarded_Control::0      2667376                       (Unspecified)
system.ruby.network.routers6.throttle01.msg_count.Invalidate_Control::0            6                       (Unspecified)
system.ruby.network.routers6.throttle01.msg_bytes.Invalidate_Control::0           48                       (Unspecified)
system.ruby.network.routers6.throttle02.acc_link_utilization      1834407                       # Accumulated link utilization system.ruby.network.int_links08 (Count)
system.ruby.network.routers6.throttle02.link_utilization     2.003983                       # Average link utilization (Ratio)
system.ruby.network.routers6.throttle02.total_msg_count      1000350                       # Total number of messages forwarded by this switch (Count)
system.ruby.network.routers6.throttle02.total_msg_bytes     29350512                       # Total number of bytes forwarded by this switch (Byte)
system.ruby.network.routers6.throttle02.total_data_msg_bytes     21347712                       # Total number of data bytes forwarded by this switch (Byte)
system.ruby.network.routers6.throttle02.total_msg_wait_time        32500                       # Total time spend forwarding messages (Tick)
system.ruby.network.routers6.throttle02.total_stall_cy            0                       # Total time spent blocked on any output link (Cycle)
system.ruby.network.routers6.throttle02.total_bw_sat_cy      1334237                       # Total time bandwidth was saturated on any output link (Cycle)
system.ruby.network.routers6.throttle02.avg_msg_wait_time     0.032489                       # Average time a message took to be forwarded (Ratio)
system.ruby.network.routers6.throttle02.avg_bandwidth         0.60                       # Average bandwidth (GB/s) (Ratio)
system.ruby.network.routers6.throttle02.avg_useful_bandwidth         0.43                       # Average useful (only data) bandwidth (GB/s) (Ratio)
system.ruby.network.routers6.throttle02.msg_count.Response_Data::2           20                       (Unspecified)
system.ruby.network.routers6.throttle02.msg_bytes.Response_Data::2         1440                       (Unspecified)
system.ruby.network.routers6.throttle02.msg_count.ResponseL2hit_Data::2           29                       (Unspecified)
system.ruby.network.routers6.throttle02.msg_bytes.ResponseL2hit_Data::2         2088                       (Unspecified)
system.ruby.network.routers6.throttle02.msg_count.ResponseLocal_Data::2       333509                       (Unspecified)
system.ruby.network.routers6.throttle02.msg_bytes.ResponseLocal_Data::2     24012648                       (Unspecified)
system.ruby.network.routers6.throttle02.msg_count.Response_Control::2       333345                       (Unspecified)
system.ruby.network.routers6.throttle02.msg_bytes.Response_Control::2      2666760                       (Unspecified)
system.ruby.network.routers6.throttle02.msg_count.Writeback_Control::2            3                       (Unspecified)
system.ruby.network.routers6.throttle02.msg_bytes.Writeback_Control::2           24                       (Unspecified)
system.ruby.network.routers6.throttle02.msg_count.Forwarded_Control::0       333434                       (Unspecified)
system.ruby.network.routers6.throttle02.msg_bytes.Forwarded_Control::0      2667472                       (Unspecified)
system.ruby.network.routers6.throttle02.msg_count.Invalidate_Control::0           10                       (Unspecified)
system.ruby.network.routers6.throttle02.msg_bytes.Invalidate_Control::0           80                       (Unspecified)
system.ruby.network.routers6.throttle03.acc_link_utilization      1836618                       # Accumulated link utilization system.ruby.network.int_links09 (Count)
system.ruby.network.routers6.throttle03.link_utilization     2.006399                       # Average link utilization (Ratio)
system.ruby.network.routers6.throttle03.total_msg_count      1000988                       # Total number of messages forwarded by this switch (Count)
system.ruby.network.routers6.throttle03.total_msg_bytes     29385888                       # Total number of bytes forwarded by this switch (Byte)
system.ruby.network.routers6.throttle03.total_data_msg_bytes     21377984                       # Total number of data bytes forwarded by this switch (Byte)
system.ruby.network.routers6.throttle03.total_msg_wait_time        75000                       # Total time spend forwarding messages (Tick)
system.ruby.network.routers6.throttle03.total_stall_cy            0                       # Total time spent blocked on any output link (Cycle)
system.ruby.network.routers6.throttle03.total_bw_sat_cy      1336141                       # Total time bandwidth was saturated on any output link (Cycle)
system.ruby.network.routers6.throttle03.avg_msg_wait_time     0.074926                       # Average time a message took to be forwarded (Ratio)
system.ruby.network.routers6.throttle03.avg_bandwidth         0.60                       # Average bandwidth (GB/s) (Ratio)
system.ruby.network.routers6.throttle03.avg_useful_bandwidth         0.44                       # Average useful (only data) bandwidth (GB/s) (Ratio)
system.ruby.network.routers6.throttle03.msg_count.Response_Data::2          275                       (Unspecified)
system.ruby.network.routers6.throttle03.msg_bytes.Response_Data::2        19800                       (Unspecified)
system.ruby.network.routers6.throttle03.msg_count.ResponseL2hit_Data::2          237                       (Unspecified)
system.ruby.network.routers6.throttle03.msg_bytes.ResponseL2hit_Data::2        17064                       (Unspecified)
system.ruby.network.routers6.throttle03.msg_count.ResponseLocal_Data::2       333519                       (Unspecified)
system.ruby.network.routers6.throttle03.msg_bytes.ResponseLocal_Data::2     24013368                       (Unspecified)
system.ruby.network.routers6.throttle03.msg_count.Response_Control::2       333354                       (Unspecified)
system.ruby.network.routers6.throttle03.msg_bytes.Response_Control::2      2666832                       (Unspecified)
system.ruby.network.routers6.throttle03.msg_count.Writeback_Control::2           96                       (Unspecified)
system.ruby.network.routers6.throttle03.msg_bytes.Writeback_Control::2          768                       (Unspecified)
system.ruby.network.routers6.throttle03.msg_count.Forwarded_Control::0       333503                       (Unspecified)
system.ruby.network.routers6.throttle03.msg_bytes.Forwarded_Control::0      2668024                       (Unspecified)
system.ruby.network.routers6.throttle03.msg_count.Invalidate_Control::0            4                       (Unspecified)
system.ruby.network.routers6.throttle03.msg_bytes.Invalidate_Control::0           32                       (Unspecified)
system.ruby.network.routers6.throttle04.acc_link_utilization      1484312                       # Accumulated link utilization system.ruby.network.int_links10 (Count)
system.ruby.network.routers6.throttle04.link_utilization     1.621525                       # Average link utilization (Ratio)
system.ruby.network.routers6.throttle04.total_msg_count      2758704                       # Total number of messages forwarded by this switch (Count)
system.ruby.network.routers6.throttle04.total_msg_bytes     23748992                       # Total number of bytes forwarded by this switch (Byte)
system.ruby.network.routers6.throttle04.total_data_msg_bytes      1679360                       # Total number of data bytes forwarded by this switch (Byte)
system.ruby.network.routers6.throttle04.total_msg_wait_time      1495000                       # Total time spend forwarding messages (Tick)
system.ruby.network.routers6.throttle04.total_stall_cy            0                       # Total time spent blocked on any output link (Cycle)
system.ruby.network.routers6.throttle04.total_bw_sat_cy       105396                       # Total time bandwidth was saturated on any output link (Cycle)
system.ruby.network.routers6.throttle04.avg_msg_wait_time     0.541921                       # Average time a message took to be forwarded (Ratio)
system.ruby.network.routers6.throttle04.avg_bandwidth         0.48                       # Average bandwidth (GB/s) (Ratio)
system.ruby.network.routers6.throttle04.avg_useful_bandwidth         0.03                       # Average useful (only data) bandwidth (GB/s) (Ratio)
system.ruby.network.routers6.throttle04.msg_count.Request_Control::0      1354520                       (Unspecified)
system.ruby.network.routers6.throttle04.msg_bytes.Request_Control::0     10836160                       (Unspecified)
system.ruby.network.routers6.throttle04.msg_count.Response_Data::2        13017                       (Unspecified)
system.ruby.network.routers6.throttle04.msg_bytes.Response_Data::2       937224                       (Unspecified)
system.ruby.network.routers6.throttle04.msg_count.Writeback_Data::0        13223                       (Unspecified)
system.ruby.network.routers6.throttle04.msg_bytes.Writeback_Data::0       952056                       (Unspecified)
system.ruby.network.routers6.throttle04.msg_count.Writeback_Control::0        18324                       (Unspecified)
system.ruby.network.routers6.throttle04.msg_bytes.Writeback_Control::0       146592                       (Unspecified)
system.ruby.network.routers6.throttle04.msg_count.Unblock_Control::2      1359620                       (Unspecified)
system.ruby.network.routers6.throttle04.msg_bytes.Unblock_Control::2     10876960                       (Unspecified)
system.ruby.network.routers6.throttle05.acc_link_utilization 13017.500000                       # Accumulated link utilization system.ruby.network.int_links11 (Count)
system.ruby.network.routers6.throttle05.link_utilization     0.014221                       # Average link utilization (Ratio)
system.ruby.network.routers6.throttle05.total_msg_count        26035                       # Total number of messages forwarded by this switch (Count)
system.ruby.network.routers6.throttle05.total_msg_bytes       208280                       # Total number of bytes forwarded by this switch (Byte)
system.ruby.network.routers6.throttle05.total_data_msg_bytes            0                       # Total number of data bytes forwarded by this switch (Byte)
system.ruby.network.routers6.throttle05.total_msg_wait_time            0                       # Total time spend forwarding messages (Tick)
system.ruby.network.routers6.throttle05.total_stall_cy            0                       # Total time spent blocked on any output link (Cycle)
system.ruby.network.routers6.throttle05.total_bw_sat_cy            0                       # Total time bandwidth was saturated on any output link (Cycle)
system.ruby.network.routers6.throttle05.avg_msg_wait_time            0                       # Average time a message took to be forwarded (Ratio)
system.ruby.network.routers6.throttle05.avg_bandwidth         0.00                       # Average bandwidth (GB/s) (Ratio)
system.ruby.network.routers6.throttle05.avg_useful_bandwidth         0.00                       # Average useful (only data) bandwidth (GB/s) (Ratio)
system.ruby.network.routers6.throttle05.msg_count.Request_Control::1        13018                       (Unspecified)
system.ruby.network.routers6.throttle05.msg_bytes.Request_Control::1       104144                       (Unspecified)
system.ruby.network.routers6.throttle05.msg_count.Unblock_Control::2        13017                       (Unspecified)
system.ruby.network.routers6.throttle05.msg_bytes.Unblock_Control::2       104136                       (Unspecified)
system.ruby.power_state.pwrStateResidencyTicks::UNDEFINED  45769020500                       # Cumulative time (in ticks) in various power states (Tick)
system.sys_port_proxy.power_state.pwrStateResidencyTicks::UNDEFINED  45769020500                       # Cumulative time (in ticks) in various power states (Tick)
system.voltage_domain.voltage                       1                       # Voltage in Volts (Volt)
system.workload.inst.arm                            0                       # number of arm instructions executed (Count)
system.workload.inst.quiesce                        0                       # number of quiesce instructions executed (Count)

---------- End Simulation Statistics   ----------
